AquaCrop 6.0 (March 2017) - Output created on (date) : 10/16/2019   at (time) : 2:53:03 PM

   Run:   1
   Day Month  Year   DAP Stage   WC(2.30)   Rain     Irri   Surf   Infilt   RO    Drain       CR    Zgwt       Ex       E     E/Ex     Trx       Tr  Tr/Trx    ETx      ET  ET/ETx      GD       Z     StExp  StSto  StSen StSalt StWeed   CC      CCw     StTr  Kc(Tr)     Trx       Tr      TrW  Tr/Trx   WP    Biomass     HI  YieldPart  Brelative    WPet  WC(2.30) Wr(2.30)     Z       Wr    Wr(SAT)    Wr(FC)   Wr(exp)   Wr(sto)   Wr(sen)   Wr(PWP)    SaltIn    SaltOut   SaltUp   Salt(2.30)  SaltZ     Z       ECe    ECsw   StSalt  Zgwt    ECgw       WC01       WC 2       WC 3       WC 4       WC 5       WC 6       WC 7       WC 8       WC 9       WC10       WC11       WC12      ECe01      ECe 2      ECe 3      ECe 4      ECe 5      ECe 6      ECe 7      ECe 8      ECe 9      ECe10      ECe11      ECe12     Rain       ETo      Tmin      Tavg      Tmax      CO2
                                      mm      mm       mm     mm     mm     mm       mm       mm      m        mm       mm     %        mm       mm    %        mm      mm       %    °C-day     m       %      %      %      %      %      %       %       %       -        mm       mm       mm    %     g/m2    ton/ha      %    ton/ha       %       kg/m3      mm       mm       m       mm        mm        mm        mm        mm        mm         mm    ton/ha    ton/ha    ton/ha    ton/ha    ton/ha     m      dS/m    dS/m      %     m      dS/m       0.05       0.17       0.32       0.47       0.63       0.80       1.00       1.20       1.43       1.68       1.93       2.17       0.05       0.17       0.32       0.47       0.63       0.80       1.00       1.20       1.43       1.68       1.93       2.17       mm        mm       °C        °C        °C       ppm
    30     3  1988     1     1     721.5     0.8      0.0    0.0    0.8    0.0      0.0      0.0   -9.90      5.8      4.8     82      0.0      0.0   100      5.8     4.8      82     16.5    0.30     -9     -9     -9      0     -9     0.0     0.0      0    -9.00      0.0      0.0      0.0   100     0.0     0.000    -9.9    0.000      -9        0.00     721.5    721.5    0.30    93.2     125.4      97.2      91.1      67.4      67.1      53.6    0.000     0.000     0.000     0.000     0.000    0.30     0.00    0.00      0   -9.90   -9.00       29.8       34.0       33.0       33.0       33.0       33.0       33.0       33.0       33.0       33.0       33.0       33.0        0.0        0.0        0.0        0.0        0.0        0.0        0.0        0.0        0.0        0.0        0.0        0.0      0.8       5.3      19.0      26.1      33.1    351.57
    31     3  1988     2     1     717.0     0.2      0.0    0.0    0.2    0.0      0.0      0.0   -9.90      6.2      4.6     75      0.0      0.0   100      6.2     4.6      75     16.4    0.30     -9     -9     -9      0     -9     0.0     0.0      0    -9.00      0.0      0.0      0.0   100     0.0     0.000    -9.9    0.000      -9        0.00     717.0    717.0    0.30    88.7     125.4      97.2      91.1      67.7      67.1      53.6    0.000     0.000     0.000     0.000     0.000    0.30     0.00    0.00      0   -9.90   -9.00       25.3       34.0       33.0       33.0       33.0       33.0       33.0       33.0       33.0       33.0       33.0       33.0        0.0        0.0        0.0        0.0        0.0        0.0        0.0        0.0        0.0        0.0        0.0        0.0      0.2       5.6      18.9      25.9      33.0    351.57
     1     4  1988     3     1     712.9     0.1      0.0    0.0    0.1    0.0      0.0      0.0   -9.90      5.7      4.3     75      0.0      0.0   100      5.7     4.3      75     16.6    0.30     -9     -9     -9      0     -9     0.0     0.0      0    -9.00      0.0      0.0      0.0   100     0.0     0.000    -9.9    0.000      -9        0.00     712.9    712.9    0.30    84.6     125.4      97.2      91.1      67.3      67.1      53.6    0.000     0.000     0.000     0.000     0.000    0.30     0.00    0.00      0   -9.90   -9.00       20.9       34.0       33.0       33.0       33.0       33.0       33.0       33.0       33.0       33.0       33.0       33.0        0.0        0.0        0.0        0.0        0.0        0.0        0.0        0.0        0.0        0.0        0.0        0.0      0.1       5.2      19.1      25.8      32.4    351.57
     2     4  1988     4     1     710.1     0.3      0.0    0.0    0.3    0.0      0.0      0.0   -9.90      5.5      3.1     56      0.0      0.0   100      5.5     3.1      56     16.8    0.31     -9     -9     -9      0     -9     0.0     0.0      0    -9.00      0.0      0.0      0.0   100     0.0     0.000    -9.9    0.000      -9        0.00     710.1    710.1    0.31    84.9     129.4     100.3      94.0      69.3      69.3      55.4    0.000     0.000     0.000     0.000     0.000    0.31     0.00    0.00      0   -9.90   -9.00       18.1       34.0       33.0       33.0       33.0       33.0       33.0       33.0       33.0       33.0       33.0       33.0        0.0        0.0        0.0        0.0        0.0        0.0        0.0        0.0        0.0        0.0        0.0        0.0      0.3       5.0      19.6      25.9      32.2    351.57
     3     4  1988     5     1     708.2     0.5      0.0    0.0    0.5    0.0      0.0      0.0   -9.90      5.6      2.4     42      0.0      0.0   100      5.6     2.4      43     16.5    0.36     -9      0      0      0      0     0.5     0.5      0     0.01      0.0      0.0      0.0   100    33.2     0.003    -9.9    0.000     100        0.00     708.2    708.2    0.36    97.3     147.5     114.6     107.6      79.5      79.5      63.6    0.000     0.000     0.000     0.000     0.000    0.36     0.00    0.00      0   -9.90   -9.00       16.2       34.0       33.0       33.0       33.0       33.0       33.0       33.0       33.0       33.0       33.0       33.0        0.0        0.0        0.0        0.0        0.0        0.0        0.0        0.0        0.0        0.0        0.0        0.0      0.5       5.1      19.0      25.3      31.6    351.57
     4     4  1988     6     2     706.6     0.1      0.0    0.0    0.1    0.0      0.0      0.0   -9.90      5.6      1.6     29      0.1      0.1   100      5.6     1.7      30     16.9    0.40     -9      0      0      0      0     0.6     0.6      0     0.01      0.1      0.1      0.1   100    33.2     0.007    -9.9    0.000     100        0.00     706.6    706.6    0.40   109.0     164.5     127.9     120.2      89.0      89.0      71.3    0.000     0.000     0.000     0.000     0.000    0.40     0.00    0.00      0   -9.90   -9.00       14.6       33.9       33.0       33.0       33.0       33.0       33.0       33.0       33.0       33.0       33.0       33.0        0.0        0.0        0.0        0.0        0.0        0.0        0.0        0.0        0.0        0.0        0.0        0.0      0.1       5.1      19.8      25.9      32.0    351.57
     5     4  1988     7     2     705.7     1.6      0.0    0.0    1.6    0.0      0.0      0.0   -9.90      5.6      2.5     45      0.1      0.1   100      5.7     2.6      45     16.8    0.44      6      0      0      0      0     0.8     0.8      0     0.01      0.1      0.1      0.1   100    33.2     0.011    -9.9    0.000      99        0.00     705.7    705.7    0.44   120.4     180.2     140.2     132.1      97.9      97.9      78.4    0.000     0.000     0.000     0.000     0.000    0.44     0.00    0.00      0   -9.90   -9.00       13.6       33.9       33.0       33.0       33.0       33.0       33.0       33.0       33.0       33.0       33.0       33.0        0.0        0.0        0.0        0.0        0.0        0.0        0.0        0.0        0.0        0.0        0.0        0.0      1.6       5.2      19.5      25.9      32.2    351.57
     6     4  1988     8     2     704.7     0.9      0.0    0.0    0.9    0.0      0.0      0.0   -9.90      5.3      1.8     33      0.1      0.1   100      5.4     1.8      34     16.6    0.47      6      0      0      0      0     0.9     0.9      0     0.02      0.1      0.1      0.1   100    33.2     0.017    -9.9    0.000      99        0.00     704.7    704.7    0.47   131.2     195.1     151.9     142.3     105.7     105.7      85.1    0.000     0.000     0.000     0.000     0.000    0.47     0.00    0.00      0   -9.90   -9.00       12.8       33.8       33.0       33.0       33.0       33.0       33.0       33.0       33.0       33.0       33.0       33.0        0.0        0.0        0.0        0.0        0.0        0.0        0.0        0.0        0.0        0.0        0.0        0.0      0.9       4.9      19.5      24.6      29.8    351.57
     7     4  1988     9     2     703.9     0.4      0.0    0.0    0.4    0.0      0.0      0.0   -9.90      4.5      1.1     24      0.1      0.1   100      4.6     1.2      26     15.9    0.51      5      0      0      0      0     1.1     1.1      0     0.02      0.1      0.1      0.1   100    33.2     0.023    -9.9    0.000      98        0.00     703.9    703.9    0.51   141.1     208.7     162.6     150.5     112.1     112.1      91.3    0.000     0.000     0.000     0.000     0.000    0.51     0.00    0.00      0   -9.90   -9.00       12.0       33.8       33.0       33.0       33.0       33.0       33.0       33.0       33.0       33.0       33.0       33.0        0.0        0.0        0.0        0.0        0.0        0.0        0.0        0.0        0.0        0.0        0.0        0.0      0.4       4.2      19.7      23.9      28.1    351.57
     8     4  1988    10     2     703.1     0.1      0.0    0.0    0.1    0.0      0.0      0.0   -9.90      5.3      0.9     16      0.1      0.1   100      5.4     1.0      18     16.8    0.54      6      0      0      0      0     1.4     1.4      0     0.02      0.1      0.1      0.1   100    33.2     0.032    -9.9    0.000      97        0.00     703.1    703.1    0.54   151.1     222.6     173.6     162.6     121.0     121.0      97.6    0.000     0.000     0.000     0.000     0.000    0.54     0.00    0.00      0   -9.90   -9.00       11.2       33.7       33.0       33.0       33.0       33.0       33.0       33.0       33.0       33.0       33.0       33.0        0.0        0.0        0.0        0.0        0.0        0.0        0.0        0.0        0.0        0.0        0.0        0.0      0.1       4.9      19.6      25.8      31.9    351.57
     9     4  1988    11     2     702.6     2.4      0.0    0.0    2.4    0.0      0.0      0.0   -9.90      4.9      2.7     56      0.1      0.1   100      5.1     2.9      57     16.9    0.58      4      0      0      0      0     1.7     1.7      0     0.03      0.1      0.1      0.1   100    33.2     0.041    -9.9    0.000      97        0.00     702.6    702.6    0.58   161.4     236.2     184.2     171.8     128.0     128.0     103.7    0.000     0.000     0.000     0.000     0.000    0.58     0.00    0.00      0   -9.90   -9.00       10.9       33.6       33.0       33.0       33.0       33.0       33.0       33.0       33.0       33.0       33.0       33.0        0.0        0.0        0.0        0.0        0.0        0.0        0.0        0.0        0.0        0.0        0.0        0.0      2.4       4.6      19.9      25.0      30.1    351.57
    10     4  1988    12     2     702.0     1.1      0.0    0.0    1.1    0.0      0.0      0.0   -9.90      4.7      1.5     33      0.2      0.2   100      4.8     1.7      35     16.4    0.61      4      0      0      0      0     2.0     2.0      0     0.04      0.2      0.2      0.2   100    33.2     0.053    -9.9    0.000      96        0.00     702.0    702.0    0.61   170.8     249.0     194.3     180.5     134.6     134.6     109.5    0.000     0.000     0.000     0.000     0.000    0.61     0.00    0.00      0   -9.90   -9.00       10.4       33.5       33.0       33.0       33.0       33.0       33.0       33.0       33.0       33.0       33.0       33.0        0.0        0.0        0.0        0.0        0.0        0.0        0.0        0.0        0.0        0.0        0.0        0.0      1.1       4.4      19.7      24.4      29.0    351.57
    11     4  1988    13     2     701.5     1.4      0.0    0.0    1.4    0.0      0.0      0.0   -9.90      4.0      1.7     42      0.2      0.2   100      4.2     1.9      45     15.8    0.64      2      0      0      0      0     2.5     2.5      0     0.04      0.2      0.2      0.2   100    33.2     0.068    -9.9    0.000      96        0.00     701.5    701.5    0.64   179.8     261.0     203.7     187.3     140.0     140.0     115.0    0.000     0.000     0.000     0.000     0.000    0.64     0.00    0.00      0   -9.90   -9.00       10.1       33.4       33.0       33.0       33.0       33.0       33.0       33.0       33.0       33.0       33.0       33.0        0.0        0.0        0.0        0.0        0.0        0.0        0.0        0.0        0.0        0.0        0.0        0.0      1.4       3.8      18.9      23.8      28.6    351.57
    12     4  1988    14     2     701.0     1.7      0.0    0.0    1.7    0.0      0.0      0.0   -9.90      4.4      2.0     45      0.2      0.2   100      4.6     2.2      48     16.0    0.67      2      0      0      0      0     3.0     3.0      0     0.05      0.2      0.2      0.2   100    33.2     0.086    -9.9    0.000      95        0.00     701.0    701.0    0.67   188.6     273.0     213.1     197.3     147.4     147.4     120.4    0.000     0.000     0.000     0.000     0.000    0.67     0.00    0.00      0   -9.90   -9.00        9.8       33.2       33.0       33.0       33.0       33.0       33.0       33.0       33.0       33.0       33.0       33.0        0.0        0.0        0.0        0.0        0.0        0.0        0.0        0.0        0.0        0.0        0.0        0.0      1.7       4.2      19.3      24.0      28.7    351.57
    13     4  1988    15     2     700.4     0.2      0.0    0.0    0.2    0.0      0.0      0.0   -9.90      4.0      0.6     14      0.3      0.3   100      4.3     0.8      19     16.7    0.70      2      0      0      0      0     3.7     3.7      0     0.06      0.3      0.3      0.3   100    33.2     0.107    -9.9    0.000      95        0.00     700.4    700.4    0.70   197.6     285.2     222.7     205.2     153.5     153.5     125.9    0.000     0.000     0.000     0.000     0.000    0.70     0.00    0.00      0   -9.90   -9.00        9.4       33.0       33.0       33.0       33.0       33.0       33.0       33.0       33.0       33.0       33.0       33.0        0.0        0.0        0.0        0.0        0.0        0.0        0.0        0.0        0.0        0.0        0.0        0.0      0.2       3.9      19.4      24.9      30.3    351.57
    14     4  1988    16     2     699.6     0.3      0.0    0.0    0.3    0.0      0.0      0.0   -9.90      4.7      0.7     15      0.4      0.4   100      5.0     1.1      21     16.9    0.73      3      0      0      0      0     4.5     4.5      0     0.08      0.4      0.4      0.4   100    33.2     0.133    -9.9    0.000      94        0.00     699.6    699.6    0.73   206.4     297.3     232.3     216.6     161.7     161.7     131.4    0.000     0.000     0.000     0.000     0.000    0.73     0.00    0.00      0   -9.90   -9.00        9.0       32.8       33.0       33.0       33.0       33.0       33.0       33.0       33.0       33.0       33.0       33.0        0.0        0.0        0.0        0.0        0.0        0.0        0.0        0.0        0.0        0.0        0.0        0.0      0.3       4.6      19.7      25.0      30.4    351.57
    15     4  1988    17     2     698.8     0.4      0.0    0.0    0.4    0.0      0.0      0.0   -9.90      4.8      0.8     16      0.5      0.5   100      5.3     1.2      23     16.9    0.76      4      0      0      0      0     5.5     5.5      0     0.10      0.5      0.5      0.5   100    33.2     0.165    -9.9    0.000      94        0.00     698.8    698.8    0.76   214.9     309.2     241.6     226.1     168.8     168.8     136.8    0.000     0.000     0.000     0.000     0.000    0.76     0.00    0.00      0   -9.90   -9.00        9.0       32.2       33.0       33.0       33.0       33.0       33.0       33.0       33.0       33.0       33.0       33.0        0.0        0.0        0.0        0.0        0.0        0.0        0.0        0.0        0.0        0.0        0.0        0.0      0.4       4.8      19.7      25.3      30.8    351.57
    16     4  1988    18     2     697.8     0.1      0.0    0.0    0.1    0.0      0.0      0.0   -9.90      4.7      0.5     10      0.6      0.6   100      5.3     1.0      20     16.4    0.79      4      0      0      0      0     6.7     6.7      0     0.12      0.6      0.6      0.6   100    33.2     0.204    -9.9    0.000      93        0.00     697.8    697.8    0.79   222.9     320.7     250.6     234.5     175.1     175.1     141.9    0.000     0.000     0.000     0.000     0.000    0.79     0.00    0.00      0   -9.90   -9.00        9.0       31.6       33.0       33.0       33.0       33.0       33.0       33.0       33.0       33.0       33.0       33.0        0.0        0.0        0.0        0.0        0.0        0.0        0.0        0.0        0.0        0.0        0.0        0.0      0.1       4.8      18.8      25.1      31.5    351.57
    17     4  1988    19     2     696.8     0.0      0.0    0.0    0.0    0.0      0.0      0.0   -9.90      4.7      0.4      8      0.7      0.7   100      5.4     1.0      19     15.9    0.82      4      0      0      0      0     8.1     8.1      0     0.14      0.7      0.7      0.7   100    33.2     0.250    -9.9    0.000      93        0.00     696.8    696.8    0.82   230.5     331.6     259.2     243.0     181.4     181.4     146.9    0.000     0.000     0.000     0.000     0.000    0.82     0.00    0.00      0   -9.90   -9.00        9.0       30.8       33.0       33.0       33.0       33.0       33.0       33.0       33.0       33.0       33.0       33.0        0.0        0.0        0.0        0.0        0.0        0.0        0.0        0.0        0.0        0.0        0.0        0.0      0.0       4.9      17.9      24.6      31.3    351.57
    18     4  1988    20     2     695.7     0.6      0.0    0.0    0.6    0.0      0.0      0.0   -9.90      4.5      0.9     20      0.8      0.8   100      5.4     1.7      32     16.1    0.84      4      0      0      0      0     9.9     9.9      0     0.17      0.8      0.8      0.8   100    33.2     0.306    -9.9    0.000      92        0.00     695.7    695.7    0.84   237.9     342.5     267.7     251.1     187.5     187.5     151.8    0.000     0.000     0.000     0.000     0.000    0.84     0.00    0.00      0   -9.90   -9.00        9.0       30.1       33.0       33.0       33.0       33.0       33.0       33.0       33.0       33.0       33.0       33.0        0.0        0.0        0.0        0.0        0.0        0.0        0.0        0.0        0.0        0.0        0.0        0.0      0.6       4.9      18.2      24.5      30.8    351.57
    19     4  1988    21     2     694.5     0.1      0.0    0.0    0.1    0.0      0.0      0.0   -9.90      4.1      0.4      9      0.9      0.9   100      5.0     1.3      26     16.1    0.87      4      0      0      0      0    12.0    12.0      0     0.20      0.9      0.9      0.9   100    33.2     0.373    -9.9    0.000      92        0.00     694.5    694.5    0.87   245.2     353.3     276.2     257.7     192.6     192.6     156.7    0.000     0.000     0.000     0.000     0.000    0.87     0.00    0.00      0   -9.90   -9.00        9.0       29.2       33.0       33.0       33.0       33.0       33.0       33.0       33.0       33.0       33.0       33.0        0.0        0.0        0.0        0.0        0.0        0.0        0.0        0.0        0.0        0.0        0.0        0.0      0.1       4.6      18.3      24.2      30.1    351.57
    20     4  1988    22     2     693.1     0.7      0.0    0.0    0.7    0.0      0.0      0.0   -9.90      4.1      0.9     23      1.2      1.2   100      5.2     2.1      40     16.0    0.90      4      0      0      0      0    14.5    14.5      0     0.24      1.2      1.2      1.2   100    33.2     0.453    -9.9    0.000      91        0.00     693.1    693.1    0.90   252.1     363.8     284.5     266.4     199.0     199.0     161.5    0.000     0.000     0.000     0.000     0.000    0.90     0.00    0.00      0   -9.90   -9.00        9.0       28.2       33.0       33.0       33.0       33.0       33.0       33.0       33.0       33.0       33.0       33.0        0.0        0.0        0.0        0.0        0.0        0.0        0.0        0.0        0.0        0.0        0.0        0.0      0.7       4.8      18.2      24.0      29.9    351.57
    21     4  1988    23     2     691.5     0.4      0.0    0.0    0.4    0.0      0.0      0.0   -9.90      3.8      0.6     16      1.4      1.4   100      5.2     2.0      38     15.4    0.92      4      0      0      0      0    17.5    17.5      0     0.29      1.4      1.4      1.4   100    33.2     0.548    -9.9    0.000      91        0.00     691.5    691.5    0.92   258.4     373.9     292.4     273.8     204.6     204.6     166.0    0.000     0.000     0.000     0.000     0.000    0.92     0.00    0.00      0   -9.90   -9.00        9.0       27.1       33.0       33.0       33.0       33.0       33.0       33.0       33.0       33.0       33.0       33.0        0.0        0.0        0.0        0.0        0.0        0.0        0.0        0.0        0.0        0.0        0.0        0.0      0.4       4.8      17.7      23.4      29.2    351.57
    22     4  1988    24     2     689.7     1.4      0.0    0.0    1.4    0.0      0.0      0.0   -9.90      3.7      1.5     42      1.7      1.7   100      5.3     3.2      60     15.8    0.95      4      0      0      0      0    21.1    21.1      0     0.34      1.7      1.7      1.7   100    33.2     0.660    -9.9    0.000      90        0.00     689.7    689.7    0.95   264.7     384.1     300.4     281.8     210.6     210.6     170.6    0.000     0.000     0.000     0.000     0.000    0.95     0.00    0.00      0   -9.90   -9.00        9.0       25.9       33.0       33.0       33.0       33.0       33.0       33.0       33.0       33.0       33.0       33.0        0.0        0.0        0.0        0.0        0.0        0.0        0.0        0.0        0.0        0.0        0.0        0.0      1.4       4.9      17.8      23.8      29.8    351.57
    23     4  1988    25     2     687.8     0.4      0.0    0.0    0.4    0.0      0.0      0.0   -9.90      3.0      0.6     18      1.7      1.7   100      4.8     2.3      48     15.4    0.97      4      0      0      0      0    25.4    25.4      0     0.40      1.7      1.7      1.7   100    33.2     0.791    -9.9    0.000      90        0.00     687.8    687.8    0.97   270.5     394.0     308.2     286.5     214.5     214.5     175.1    0.000     0.000     0.000     0.000     0.000    0.97     0.00    0.00      0   -9.90   -9.00        9.0       24.5       33.0       33.0       33.0       33.0       33.0       33.0       33.0       33.0       33.0       33.0        0.0        0.0        0.0        0.0        0.0        0.0        0.0        0.0        0.0        0.0        0.0        0.0      0.4       4.4      17.5      23.4      29.3    351.57
    24     4  1988    26     2     685.6     1.1      0.0    0.0    1.1    0.0      0.0      0.0   -9.90      2.8      1.2     42      2.1      2.1   100      5.0     3.3      67     15.8    1.00      4      0      0      0      0    30.7    30.7      0     0.46      2.1      2.1      2.1   100    33.2     0.946    -9.9    0.000      90        0.00     685.6    685.6    1.00   276.1     404.0     316.0     294.9     220.6     220.6     179.6    0.000     0.000     0.000     0.000     0.000    1.00     0.00    0.00      0   -9.90   -9.00        9.0       23.0       33.0       33.0       33.0       33.0       33.0       33.0       33.0       33.0       33.0       33.0        0.0        0.0        0.0        0.0        0.0        0.0        0.0        0.0        0.0        0.0        0.0        0.0      1.1       4.6      18.5      23.8      29.1    351.57
    25     4  1988    27     2     683.3     0.3      0.0    0.0    0.3    0.0      0.0      0.0   -9.90      2.2      0.4     18      2.2      2.2   100      4.4     2.6      59     15.6    1.02      4      0      0      0      0    37.0    37.0      0     0.54      2.2      2.2      2.2   100    33.2     1.125    -9.9    0.000      89        0.00     683.3    683.3    1.02   281.5     413.8     323.7     299.4     224.4     224.4     184.0    0.000     0.000     0.000     0.000     0.000    1.02     0.00    0.00      0   -9.90   -9.00        9.0       21.4       33.0       33.0       33.0       33.0       33.0       33.0       33.0       33.0       33.0       33.0        0.0        0.0        0.0        0.0        0.0        0.0        0.0        0.0        0.0        0.0        0.0        0.0      0.3       4.1      18.1      23.6      29.2    351.57
    26     4  1988    28     2     680.3     0.3      0.0    0.0    0.3    0.0      0.0      0.0   -9.90      2.1      0.4     18      2.9      2.9   100      5.0     3.3      66     15.6    1.05      6      0      0      0      0    44.4    44.4      0     0.62      2.9      2.9      2.9   100    33.2     1.332    -9.9    0.000      89        0.00     680.3    680.3    1.05   286.1     423.4     331.3     309.7     231.7     231.7     188.4    0.000     0.000     0.000     0.000     0.000    1.05     0.00    0.00      0   -9.90   -9.00        9.0       19.3       33.0       33.0       33.0       33.0       33.0       33.0       33.0       33.0       33.0       33.0        0.0        0.0        0.0        0.0        0.0        0.0        0.0        0.0        0.0        0.0        0.0        0.0      0.3       4.7      17.6      23.6      29.6    351.57
    27     4  1988    29     2     677.0     0.5      0.0    0.0    0.5    0.0      0.0      0.0   -9.90      1.6      0.5     33      3.3      3.3   100      4.9     3.8      77     16.0    1.07      7      0      0      0      0    52.9    52.9      0     0.71      3.3      3.3      3.3   100    33.2     1.567    -9.9    0.000      89        0.00     677.0    677.0    1.07   290.6     433.3     339.1     316.4     236.8     236.8     192.9    0.000     0.000     0.000     0.000     0.000    1.07     0.00    0.00      0   -9.90   -9.00        9.0       18.0       32.0       33.0       33.0       33.0       33.0       33.0       33.0       33.0       33.0       33.0        0.0        0.0        0.0        0.0        0.0        0.0        0.0        0.0        0.0        0.0        0.0        0.0      0.5       4.6      18.0      24.1      30.1    351.57
    28     4  1988    30     2     673.2     0.9      0.0    0.0    0.9    0.0      0.0      0.0   -9.90      1.4      0.9     65      3.8      3.8   100      5.2     4.7      90     16.1    1.09      8      0      0      0      0    60.1    60.1      0     0.77      3.8      3.8      3.8   100    33.2     1.824    -9.9    0.000      90        0.00     673.2    673.2    1.09   294.5     443.1     346.8     325.3     243.3     243.3     197.3    0.000     0.000     0.000     0.000     0.000    1.09     0.00    0.00      0   -9.90   -9.00        9.0       18.0       29.4       33.0       33.0       33.0       33.0       33.0       33.0       33.0       33.0       33.0        0.0        0.0        0.0        0.0        0.0        0.0        0.0        0.0        0.0        0.0        0.0        0.0      0.9       4.9      18.1      24.3      30.5    351.57
    29     4  1988    31     2     669.4     0.2      0.0    0.0    0.2    0.0      0.0      0.0   -9.90      1.1      0.2     21      3.8      3.8   100      4.9     4.0      82     16.1    1.12      9      0      0      0      0    66.1    66.1      0     0.83      3.8      3.8      3.8   100    33.2     2.098    -9.9    0.000      90        0.00     669.4    669.4    1.12   298.3     452.8     354.4     330.7     247.6     247.6     201.7    0.000     0.000     0.000     0.000     0.000    1.12     0.00    0.00      0   -9.90   -9.00        9.0       17.9       26.7       33.0       33.0       33.0       33.0       33.0       33.0       33.0       33.0       33.0        0.0        0.0        0.0        0.0        0.0        0.0        0.0        0.0        0.0        0.0        0.0        0.0      0.2       4.6      18.1      24.5      30.9    351.57
    30     4  1988    32     2     665.2     0.0      0.0    0.0    0.0    0.0      0.0      0.0   -9.90      0.9      0.0      3      4.2      4.2   100      5.1     4.2      82     16.1    1.14     11      0      0      0      0    71.0    71.0      0     0.87      4.2      4.2      4.2   100    33.2     2.386    -9.9    0.000      91        0.00     665.2    665.2    1.14   301.7     462.5     362.0     339.0     253.7     253.7     206.1    0.000     0.000     0.000     0.000     0.000    1.14     0.00    0.00      0   -9.90   -9.00        9.0       17.9       23.8       33.0       33.0       33.0       33.0       33.0       33.0       33.0       33.0       33.0        0.0        0.0        0.0        0.0        0.0        0.0        0.0        0.0        0.0        0.0        0.0        0.0      0.0       4.8      18.2      25.3      32.3    351.57
     1     5  1988    33     2     660.8     0.0      0.0    0.0    0.0    0.0      0.0      0.0   -9.90      0.8      0.0      3      4.3      4.3   100      5.1     4.3      85     16.0    1.17     13      0      0      0      0    74.9    74.9      0     0.90      4.3      4.3      4.3   100    33.2     2.684    -9.9    0.000      91        0.00     660.8    660.8    1.17   304.9     472.0     369.5     346.0     259.0     259.0     210.4    0.000     0.000     0.000     0.000     0.000    1.17     0.00    0.00      0   -9.90   -9.00        9.0       17.9       20.8       33.0       33.0       33.0       33.0       33.0       33.0       33.0       33.0       33.0        0.0        0.0        0.0        0.0        0.0        0.0        0.0        0.0        0.0        0.0        0.0        0.0      0.0       4.8      18.0      25.1      32.2    351.57
     2     5  1988    34     2     656.2     0.3      0.0    0.0    0.3    0.0      0.0      0.0   -9.90      0.7      0.3     46      4.6      4.6   100      5.3     4.9      93     15.9    1.19     15      0      0      0      0    78.2    78.2      0     0.92      4.6      4.6      4.6   100    33.2     2.989    -9.9    0.000      92        0.00     656.2    656.2    1.19   307.6     481.4     376.9     354.1     264.9     264.9     214.6    0.000     0.000     0.000     0.000     0.000    1.19     0.00    0.00      0   -9.90   -9.00        9.0       17.9       17.5       33.0       33.0       33.0       33.0       33.0       33.0       33.0       33.0       33.0        0.0        0.0        0.0        0.0        0.0        0.0        0.0        0.0        0.0        0.0        0.0        0.0      0.3       5.0      17.7      24.4      31.1    351.57
     3     5  1988    35     2     651.8     0.5      0.0    0.0    0.5    0.0      0.0      0.0   -9.90      0.5      0.5     93      4.4      4.4   100      5.0     4.9      99     16.1    1.21     16      0      0      0      0    80.9    80.9      0     0.94      4.4      4.4      4.4   100    33.2     3.302    -9.9    0.000      92        0.00     651.8    651.8    1.21   310.6     490.8     384.3     359.2     269.0     269.0     218.9    0.000     0.000     0.000     0.000     0.000    1.21     0.00    0.00      0   -9.90   -9.00        9.0       17.9       17.5       29.9       33.0       33.0       33.0       33.0       33.0       33.0       33.0       33.0        0.0        0.0        0.0        0.0        0.0        0.0        0.0        0.0        0.0        0.0        0.0        0.0      0.5       4.7      18.1      24.6      31.0    351.57
     4     5  1988    36     2     647.4     0.1      0.0    0.0    0.1    0.0      0.0      0.0   -9.90      0.5      0.1     24      4.4      4.4   100      4.9     4.5      93     16.0    1.24     18      0      0      0      0    83.1    83.1      0     0.96      4.4      4.4      4.4   100    33.2     3.619    -9.9    0.000      93        0.00     647.4    647.4    1.24   313.5     500.1     391.6     365.5     273.8     273.8     223.1    0.000     0.000     0.000     0.000     0.000    1.24     0.00    0.00      0   -9.90   -9.00        9.0       17.9       17.5       26.8       33.0       33.0       33.0       33.0       33.0       33.0       33.0       33.0        0.0        0.0        0.0        0.0        0.0        0.0        0.0        0.0        0.0        0.0        0.0        0.0      0.1       4.6      18.0      25.3      32.5    351.57
     5     5  1988    37     2     642.8     0.0      0.0    0.0    0.0    0.0      0.0      0.0   -9.90      0.4      0.0      3      4.6      4.6   100      5.0     4.6      92     16.1    1.26     21      0      0      0      0    85.0    85.0      0     0.97      4.6      4.6      4.6   100    33.2     3.941    -9.9    0.000      93        0.00     642.8    642.8    1.26   316.3     509.5     398.9     373.0     279.3     279.3     227.3    0.000     0.000     0.000     0.000     0.000    1.26     0.00    0.00      0   -9.90   -9.00        9.0       17.9       17.5       23.6       33.0       33.0       33.0       33.0       33.0       33.0       33.0       33.0        0.0        0.0        0.0        0.0        0.0        0.0        0.0        0.0        0.0        0.0        0.0        0.0      0.0       4.7      18.3      24.5      30.6    351.57
     6     5  1988    38     2     638.4     0.0      0.0    0.0    0.0    0.0      0.0      0.0   -9.90      0.3      0.0      3      4.4      4.4   100      4.7     4.4      93     16.3    1.28     23      0      0      0      0    86.5    86.5      0     0.98      4.4      4.4      4.4   100    33.2     4.267    -9.9    0.000      93        0.00     638.4    638.4    1.28   319.2     518.8     406.3     378.5     283.7     283.7     231.6    0.000     0.000     0.000     0.000     0.000    1.28     0.00    0.00      0   -9.90   -9.00        9.0       17.9       17.5       20.5       33.0       33.0       33.0       33.0       33.0       33.0       33.0       33.0        0.0        0.0        0.0        0.0        0.0        0.0        0.0        0.0        0.0        0.0        0.0        0.0      0.0       4.5      18.5      24.5      30.5    351.57
     7     5  1988    39     2     634.1     0.0      0.0    0.0    0.0    0.0      0.0      0.0   -9.90      0.3      0.0      3      4.4      4.4   100      4.6     4.4      94     16.0    1.31     25      0      0      0      0    87.8    87.8      0     0.99      4.4      4.4      4.4   100    33.2     4.596    -9.9    0.000      94        0.00     634.1    634.1    1.31   322.1     528.0     413.5     384.6     288.4     288.4     235.7    0.000     0.000     0.000     0.000     0.000    1.31     0.00    0.00      0   -9.90   -9.00        9.0       17.9       17.5       17.5       33.0       33.0       33.0       33.0       33.0       33.0       33.0       33.0        0.0        0.0        0.0        0.0        0.0        0.0        0.0        0.0        0.0        0.0        0.0        0.0      0.0       4.4      19.2      24.0      28.9    351.57
     8     5  1988    40     2     629.5     0.0      0.0    0.0    0.0    0.0      0.0      0.0   -9.90      0.3      0.0      3      4.6      4.6   100      4.8     4.6      95     16.4    1.33     28      0      0      0      0    88.9    88.9      0     1.00      4.6      4.6      4.6   100    33.2     4.927    -9.9    0.000      94        0.00     629.5    629.5    1.33   324.8     537.3     420.8     392.8     294.3     294.3     239.9    0.000     0.000     0.000     0.000     0.000    1.33     0.00    0.00      0   -9.90   -9.00        9.0       17.9       17.5       17.5       29.9       32.9       33.0       33.0       33.0       33.0       33.0       33.0        0.0        0.0        0.0        0.0        0.0        0.0        0.0        0.0        0.0        0.0        0.0        0.0      0.0       4.6      18.8      24.6      30.5    351.57
     9     5  1988    41     2     624.8     0.0      0.0    0.0    0.0    0.0      0.0      0.0   -9.90      0.2      0.0      3      4.6      4.6   100      4.8     4.6      95     16.4    1.35     31      0      0      0      0    89.7    89.7      0     1.00      4.6      4.6      4.6   100    33.2     5.260    -9.9    0.000      94        0.00     624.8    624.8    1.35   327.4     546.5     428.1     399.5     299.4     299.4     244.1    0.000     0.000     0.000     0.000     0.000    1.35     0.00    0.00      0   -9.90   -9.00        9.0       17.9       17.5       17.5       26.8       32.8       33.0       33.0       33.0       33.0       33.0       33.0        0.0        0.0        0.0        0.0        0.0        0.0        0.0        0.0        0.0        0.0        0.0        0.0      0.0       4.6      19.0      24.4      29.7    351.57
    10     5  1988    42     2     620.3     0.3      0.0    0.0    0.3    0.0      0.0      0.0   -9.90      0.2      0.2    100      4.6      4.6   100      4.8     4.8     100     16.1    1.38     34      0      0      0      0    90.5    90.5      0     1.01      4.6      4.6      4.6   100    33.2     5.594    -9.9    0.000      94        0.00     620.3    620.3    1.38   330.0     555.6     435.2     406.2     304.4     304.4     248.2    0.000     0.000     0.000     0.000     0.000    1.38     0.00    0.00      0   -9.90   -9.00        9.1       17.9       17.5       17.5       23.6       32.8       33.0       33.0       33.0       33.0       33.0       33.0        0.0        0.0        0.0        0.0        0.0        0.0        0.0        0.0        0.0        0.0        0.0        0.0      0.3       4.6      18.3      24.5      30.6    351.57
    11     5  1988    43     2     615.7     0.0      0.0    0.0    0.0    0.0      0.0      0.0   -9.90      0.2      0.1     54      4.6      4.6   100      4.7     4.7      98     16.3    1.40     37      0      0      0      0    91.1    91.1      0     1.01      4.6      4.6      4.6   100    33.2     5.930    -9.9    0.000      95        0.00     615.7    615.7    1.40   332.5     564.7     442.3     412.1     309.0     309.0     252.3    0.000     0.000     0.000     0.000     0.000    1.40     0.00    0.00      0   -9.90   -9.00        9.0       17.9       17.5       17.5       20.4       32.8       33.0       33.0       33.0       33.0       33.0       33.0        0.0        0.0        0.0        0.0        0.0        0.0        0.0        0.0        0.0        0.0        0.0        0.0      0.0       4.5      18.6      24.4      30.2    351.57
    12     5  1988    44     2     610.8     0.0      0.0    0.0    0.0    0.0      0.0      0.0   -9.90      0.2      0.0      3      4.9      4.9   100      5.0     4.9      97     16.2    1.42     43      0      0      0      0    91.5    91.5      0     1.01      4.9      4.9      4.9   100    33.2     6.268    -9.9    0.000      95        0.00     610.8    610.8    1.42   334.7     573.7     449.4     420.9     315.3     315.3     256.4    0.000     0.000     0.000     0.000     0.000    1.42     0.00    0.00      0   -9.90   -9.00        9.0       17.9       17.5       17.5       17.6       32.3       33.0       33.0       33.0       33.0       33.0       33.0        0.0        0.0        0.0        0.0        0.0        0.0        0.0        0.0        0.0        0.0        0.0        0.0      0.0       4.8      18.4      24.8      31.1    351.57
    13     5  1988    45     2     606.1     0.0      0.0    0.0    0.0    0.0      0.0      0.0   -9.90      0.2      0.0      3      4.7      4.7   100      4.8     4.7      97     15.9    1.44     45      0      0      0      0    91.9    91.9      0     1.02      4.7      4.7      4.7   100    33.2     6.605    -9.9    0.000      95        0.00     606.1    606.1    1.44   336.9     582.5     456.3     425.9     319.3     319.3     260.4    0.000     0.000     0.000     0.000     0.000    1.44     0.00    0.00      0   -9.90   -9.00        9.0       17.9       17.5       17.5       17.6       29.9       33.0       33.0       33.0       33.0       33.0       33.0        0.0        0.0        0.0        0.0        0.0        0.0        0.0        0.0        0.0        0.0        0.0        0.0      0.0       4.6      17.9      24.4      30.8    351.57
    14     5  1988    46     2     601.9     0.3      0.0    0.0    0.3    0.0      0.0      0.0   -9.90      0.1      0.1    100      4.4      4.4   100      4.5     4.5     100     15.8    1.46     47      0      0      0      0    92.2    92.2      0     1.02      4.4      4.4      4.4   100    33.2     6.944    -9.9    0.000      95        0.00     601.9    601.9    1.46   339.5     591.1     463.1     430.0     322.7     322.7     264.3    0.000     0.000     0.000     0.000     0.000    1.46     0.00    0.00      0   -9.90   -9.00        9.2       17.9       17.5       17.5       17.6       27.5       33.0       33.0       33.0       33.0       33.0       33.0        0.0        0.0        0.0        0.0        0.0        0.0        0.0        0.0        0.0        0.0        0.0        0.0      0.3       4.3      18.0      23.8      29.5    351.57
    15     5  1988    47     2     597.5     0.3      0.0    0.0    0.3    0.0      0.0      0.0   -9.90      0.1      0.1    100      4.5      4.5   100      4.6     4.6     100     15.9    1.49     51      0      0      0      0    92.5    92.5      0     1.02      4.5      4.5      4.5   100    33.2     7.283    -9.9    0.000      95        0.00     597.5    597.5    1.49   342.0     599.8     469.9     437.1     327.9     327.9     268.2    0.000     0.000     0.000     0.000     0.000    1.49     0.00    0.00      0   -9.90   -9.00        9.3       17.9       17.5       17.5       17.6       25.2       33.0       33.0       33.0       33.0       33.0       33.0        0.0        0.0        0.0        0.0        0.0        0.0        0.0        0.0        0.0        0.0        0.0        0.0      0.3       4.4      18.0      23.9      29.9    351.57
    16     5  1988    48     2     592.8     0.0      0.0    0.0    0.0    0.0      0.0      0.0   -9.90      0.1      0.1    100      4.6      4.6   100      4.7     4.7     100     15.8    1.51     56      0      0      0      0    92.7    92.7      0     1.02      4.6      4.6      4.6   100    33.2     7.623    -9.9    0.000      95        0.00     592.8    592.8    1.51   344.0     608.4     476.6     444.2     333.1     333.1     272.1    0.000     0.000     0.000     0.000     0.000    1.51     0.00    0.00      0   -9.90   -9.00        9.2       17.9       17.5       17.5       17.6       22.8       33.0       33.0       33.0       33.0       33.0       33.0        0.0        0.0        0.0        0.0        0.0        0.0        0.0        0.0        0.0        0.0        0.0        0.0      0.0       4.5      17.5      24.2      30.9    351.57
    17     5  1988    49     2     588.4     0.0      0.0    0.0    0.0    0.0      0.0      0.0   -9.90      0.1      0.0     35      4.4      4.4   100      4.5     4.4      98     15.9    1.53     59      0      0      0      0    92.8    92.8      0     1.02      4.4      4.4      4.4   100    33.2     7.963    -9.9    0.000      96        0.00     588.4    588.4    1.53   346.3     617.0     483.4     448.9     336.9     336.9     276.0    0.000     0.000     0.000     0.000     0.000    1.53     0.00    0.00      0   -9.90   -9.00        9.2       17.9       17.5       17.5       17.6       20.5       33.0       33.0       33.0       33.0       33.0       33.0        0.0        0.0        0.0        0.0        0.0        0.0        0.0        0.0        0.0        0.0        0.0        0.0      0.0       4.3      17.9      24.3      30.7    351.57
    18     5  1988    50     2     583.9     0.0      0.0    0.0    0.0    0.0      0.0      0.0   -9.90      0.1      0.0      3      4.5      4.5   100      4.6     4.5      98     15.6    1.55     64      0      0      0      0    93.0    93.0      0     1.02      4.5      4.5      4.5   100    33.2     8.302    -9.9    0.000      96        0.00     583.9    583.9    1.55   348.4     625.4     490.0     455.8     342.0     342.0     279.8    0.000     0.000     0.000     0.000     0.000    1.55     0.00    0.00      0   -9.90   -9.00        9.2       17.9       17.5       17.5       17.6       18.1       33.0       33.0       33.0       33.0       33.0       33.0        0.0        0.0        0.0        0.0        0.0        0.0        0.0        0.0        0.0        0.0        0.0        0.0      0.0       4.4      17.4      23.6      29.8    351.57
    19     5  1988    51     2     579.5     0.0      0.0    0.0    0.0    0.0      0.0      0.0   -9.90      0.1      0.0      3      4.4      4.4   100      4.5     4.4      98     15.8    1.57     68      0      0      0      0    93.0    93.0      0     1.02      4.4      4.4      4.4   100    33.2     8.642    -9.9    0.000      96        0.00     579.5    579.5    1.57   350.6     633.8     496.6     461.2     346.2     346.2     283.6    0.000     0.000     0.000     0.000     0.000    1.57     0.00    0.00      0   -9.90   -9.00        9.2       17.9       17.5       17.5       17.6       18.1       30.7       33.0       33.0       33.0       33.0       33.0        0.0        0.0        0.0        0.0        0.0        0.0        0.0        0.0        0.0        0.0        0.0        0.0      0.0       4.3      17.6      24.5      31.3    351.57
    20     5  1988    52     2     575.6     0.4      0.0    0.0    0.4    0.0      0.0      0.0   -9.90      0.1      0.1    100      4.2      4.2   100      4.3     4.3     100     15.9    1.59     70      0      0      0      0    93.1    93.1      0     1.02      4.2      4.2      4.2   100    33.2     8.981    -9.9    0.000      96        0.00     575.6    575.6    1.59   353.4     642.3     503.3     465.7     349.8     349.8     287.4    0.000     0.000     0.000     0.000     0.000    1.59     0.00    0.00      0   -9.90   -9.00        9.5       17.9       17.5       17.5       17.6       18.1       28.5       33.0       33.0       33.0       33.0       33.0        0.0        0.0        0.0        0.0        0.0        0.0        0.0        0.0        0.0        0.0        0.0        0.0      0.4       4.1      17.7      23.9      30.0    351.57
    21     5  1988    53     2     571.3     0.1      0.0    0.0    0.1    0.0      0.0      0.0   -9.90      0.1      0.1     95      4.3      4.3   100      4.4     4.4     100     15.6    1.61     75      0      0      0      0    93.2    93.2      0     1.02      4.3      4.3      4.3   100    33.2     9.319    -9.9    0.000      96        0.00     571.3    571.3    1.61   355.6     650.6     509.8     472.6     354.9     354.9     291.2    0.000     0.000     0.000     0.000     0.000    1.61     0.00    0.00      0   -9.90   -9.00        9.5       17.9       17.5       17.5       17.6       18.1       26.3       33.0       33.0       33.0       33.0       33.0        0.0        0.0        0.0        0.0        0.0        0.0        0.0        0.0        0.0        0.0        0.0        0.0      0.1       4.2      17.5      23.6      29.8    351.57
    22     5  1988    54     2     567.0     0.0      0.0    0.0    0.0    0.0      0.0      0.0   -9.90      0.1      0.0      3      4.4      4.4   100      4.5     4.4      98     15.8    1.63     81      0      0      0      0    93.2    93.2      0     1.01      4.4      4.4      4.4   100    33.2     9.655    -9.9    0.000      96        0.00     567.0    567.0    1.63   357.8     658.9     516.4     479.5     360.0     360.0     295.0    0.000     0.000     0.000     0.000     0.000    1.63     0.00    0.00      0   -9.90   -9.00        9.5       17.9       17.5       17.5       17.6       18.1       24.0       33.0       33.0       33.0       33.0       33.0        0.0        0.0        0.0        0.0        0.0        0.0        0.0        0.0        0.0        0.0        0.0        0.0      0.0       4.3      17.7      23.8      29.9    351.57
    23     5  1988    55     2     562.7     0.2      0.0    0.0    0.2    0.0      0.0      0.0   -9.90      0.1      0.1    100      4.3      4.3   100      4.4     4.4     100     15.6    1.65     85      0      0      0      0    93.2    93.2      0     1.01      4.3      4.3      4.3   100    33.2     9.990    -9.9    0.000      96        0.00     562.7    562.7    1.65   360.0     667.2     522.8     485.5     364.5     364.5     298.7    0.000     0.000     0.000     0.000     0.000    1.65     0.00    0.00      0   -9.90   -9.00        9.6       17.9       17.5       17.5       17.6       18.1       21.7       33.0       33.0       33.0       33.0       33.0        0.0        0.0        0.0        0.0        0.0        0.0        0.0        0.0        0.0        0.0        0.0        0.0      0.2       4.3      17.3      23.9      30.4    351.57
    24     5  1988    56     3     558.7     0.3      0.0    0.0    0.3    0.0      0.0      0.0   -9.90      0.1      0.1    100      4.3      4.2    96      4.4     4.3      97     15.4    1.68     90      4      1      0      0    93.1    93.1      0     1.01      4.3      4.2      4.2    96    33.2    10.313    -9.9    0.000      96        0.00     558.7    558.7    1.68   362.4     675.2     529.2     491.4     369.0     388.2     302.3    0.000     0.000     0.000     0.000     0.000    1.68     0.00    0.00      0   -9.90   -9.00        9.8       17.9       17.5       17.5       17.6       18.1       19.5       33.0       33.0       33.0       33.0       33.0        0.0        0.0        0.0        0.0        0.0        0.0        0.0        0.0        0.0        0.0        0.0        0.0      0.3       4.3      17.2      23.4      29.7    351.57
    25     5  1988    57     3     556.4     1.7      0.0    0.0    1.7    0.0      0.0      0.0   -9.90      0.1      0.1    100      4.0      3.9    98      4.1     4.0      98     15.2    1.69     88      2      0      0      0    93.1    93.1      0     1.00      4.0      3.9      3.9    98    33.2    10.639    -9.9    0.000      96        0.00     556.4    556.4    1.69   366.3     683.2     535.4     494.6     371.7     391.4     305.9    0.000     0.000     0.000     0.000     0.000    1.69     0.00    0.00      0   -9.90   -9.00       11.4       17.9       17.5       17.5       17.6       18.1       18.2       32.3       33.0       33.0       33.0       33.0        0.0        0.0        0.0        0.0        0.0        0.0        0.0        0.0        0.0        0.0        0.0        0.0      1.7       4.0      18.0      23.2      28.4    351.57
    26     5  1988    58     3     554.1     0.9      0.0    0.0    0.9    0.0      0.0      0.0   -9.90      0.1      0.1    100      3.1      3.1   100      3.2     3.2     100     14.8    1.71     81      0      0      0      0    93.1    93.1      0     1.00      3.1      3.1      3.1   100    33.2    10.971    -9.9    0.000      96        0.00     554.1    554.1    1.71   370.0     690.8     541.4     492.3     371.1     391.5     309.4    0.000     0.000     0.000     0.000     0.000    1.71     0.00    0.00      0   -9.90   -9.00       12.3       17.9       17.5       17.5       17.6       18.1       18.2       30.6       33.0       33.0       33.0       33.0        0.0        0.0        0.0        0.0        0.0        0.0        0.0        0.0        0.0        0.0        0.0        0.0      0.9       3.1      17.3      22.8      28.2    351.57
    27     5  1988    59     3     550.3     0.1      0.0    0.0    0.1    0.0      0.0      0.0   -9.90      0.1      0.1     94      4.1      3.8    93      4.2     3.9      93     15.0    1.73     95      7      1      0      0    93.0    93.0      0     1.00      4.1      3.8      3.8    93    33.2    11.280     1.5    0.174      96        0.09     550.3    550.3    1.73   372.3     698.6     547.5     506.7     380.7     400.7     312.9    0.000     0.000     0.000     0.000     0.000    1.73     0.00    0.00      0   -9.90   -9.00       12.3       17.9       17.5       17.5       17.6       18.1       18.2       28.6       33.0       33.0       33.0       33.0        0.0        0.0        0.0        0.0        0.0        0.0        0.0        0.0        0.0        0.0        0.0        0.0      0.1       4.1      17.8      23.0      28.2    351.57
    28     5  1988    60     3     546.7     0.1      0.0    0.0    0.1    0.0      0.0      0.0   -9.90      0.1      0.1     93      4.0      3.6    91      4.1     3.7      91     15.5    1.75     98      9      2      0      0    92.9    92.9      0     0.99      4.0      3.6      3.6    91    33.2    11.580     1.8    0.206      96        0.10     546.7    546.7    1.75   375.0     706.6     553.8     511.6     384.6     404.9     316.5    0.000     0.000     0.000     0.000     0.000    1.75     0.00    0.00      0   -9.90   -9.00       12.3       17.9       17.5       17.5       17.6       18.1       18.2       26.7       33.0       33.0       33.0       33.0        0.0        0.0        0.0        0.0        0.0        0.0        0.0        0.0        0.0        0.0        0.0        0.0      0.1       4.0      18.1      23.5      28.9    351.57
    29     5  1988    61     3     542.9     0.0      0.0    0.0    0.0    0.0      0.0      0.0   -9.90      0.1      0.0      4      4.3      3.7    86      4.5     3.7      84     15.6    1.77     -9     14      3      0      0    92.7    92.7      0     0.99      4.3      3.7      3.7    86    33.2    11.863     2.0    0.242      96        0.12     542.9    542.9    1.77   377.5     714.5     560.1     521.0     391.2     411.4     320.1    0.000     0.000     0.000     0.000     0.000    1.77     0.00    0.00      0   -9.90   -9.00       12.3       17.9       17.5       17.5       17.6       18.1       18.2       24.8       33.0       33.0       33.0       33.0        0.0        0.0        0.0        0.0        0.0        0.0        0.0        0.0        0.0        0.0        0.0        0.0      0.0       4.4      17.5      23.6      29.7    351.57
    30     5  1988    62     3     540.2     0.0      0.0    0.0    0.0    0.0      0.0      0.0   -9.90      0.1      0.0      4      2.9      2.8    94      3.0     2.8      91     14.4    1.79     -9      6      1      0      0    92.7    92.7      0     0.98      2.9      2.8      2.8    94    33.2    12.168     2.3    0.285      95        0.14     540.2    540.2    1.79   380.5     721.9     565.8     513.6     387.3     408.8     323.4    0.000     0.000     0.000     0.000     0.000    1.79     0.00    0.00      0   -9.90   -9.00       12.3       17.9       17.5       17.5       17.6       18.1       18.2       23.3       33.0       33.0       33.0       33.0        0.0        0.0        0.0        0.0        0.0        0.0        0.0        0.0        0.0        0.0        0.0        0.0      0.0       3.0      16.3      22.4      28.4    351.57
    31     5  1988    63     3     536.7     0.0      0.0    0.0    0.0    0.0      0.0      0.0   -9.90      0.1      0.0      4      4.2      3.5    83      4.3     3.5      80     14.3    1.81     -9     17      4      0      0    92.4    92.4      0     0.98      4.2      3.5      3.5    83    33.2    12.437     2.7    0.333      95        0.16     536.7    536.7    1.81   382.7     729.1     571.5     530.8     398.6     419.4     326.7    0.000     0.000     0.000     0.000     0.000    1.81     0.00    0.00      0   -9.90   -9.00       12.2       17.9       17.5       17.5       17.6       18.1       18.2       21.5       33.0       33.0       33.0       33.0        0.0        0.0        0.0        0.0        0.0        0.0        0.0        0.0        0.0        0.0        0.0        0.0      0.0       4.3      16.6      22.3      27.9    351.57
     1     6  1988    64     3     533.4     0.2      0.0    0.0    0.2    0.0      0.0      0.0   -9.90      0.1      0.1    100      4.2      3.4    81      4.3     3.5      81     14.9    1.83     -9     19      5      0      0    92.1    92.1      0     0.97      4.2      3.4      3.4    81    33.2    12.697     3.1    0.390      95        0.18     533.4    533.4    1.83   385.3     736.6     577.4     536.3     402.8     423.7     330.1    0.000     0.000     0.000     0.000     0.000    1.83     0.00    0.00      0   -9.90   -9.00       12.3       17.9       17.5       17.5       17.6       18.1       18.2       19.7       33.0       33.0       33.0       33.0        0.0        0.0        0.0        0.0        0.0        0.0        0.0        0.0        0.0        0.0        0.0        0.0      0.2       4.3      17.2      22.9      28.5    351.57
     2     6  1988    65     3     531.4     1.1      0.0    0.0    1.1    0.0      0.0      0.0   -9.90      0.1      0.1    100      3.6      3.0    84      3.7     3.1      84     14.6    1.85     -9     16      4      0      0    91.9    91.9      0     0.96      3.6      3.0      3.0    84    33.2    12.965     3.5    0.455      94        0.21     531.4    531.4    1.85   389.1     744.0     583.2     536.0     403.3     424.9     333.4    0.000     0.000     0.000     0.000     0.000    1.85     0.00    0.00      0   -9.90   -9.00       13.3       17.9       17.5       17.5       17.6       18.1       18.2       18.2       32.9       33.0       33.0       33.0        0.0        0.0        0.0        0.0        0.0        0.0        0.0        0.0        0.0        0.0        0.0        0.0      1.1       3.7      17.3      22.6      27.9    351.57
     3     6  1988    66     3     528.3     0.1      0.0    0.0    0.1    0.0      0.0      0.0   -9.90      0.1      0.1     72      3.7      3.0    81      3.9     3.1      81     14.6    1.87     -9     19      5      0      0    91.6    91.6      0     0.95      3.7      3.0      3.0    81    33.2    13.222     4.0    0.530      94        0.24     528.3    528.3    1.87   391.8     751.3     588.9     543.2     408.5     430.2     336.7    0.000     0.000     0.000     0.000     0.000    1.87     0.00    0.00      0   -9.90   -9.00       13.3       17.9       17.5       17.5       17.6       18.1       18.2       18.2       31.7       33.0       33.0       33.0        0.0        0.0        0.0        0.0        0.0        0.0        0.0        0.0        0.0        0.0        0.0        0.0      0.1       3.9      16.3      22.6      28.9    351.57
     4     6  1988    67     3     525.4     0.0      0.0    0.0    0.0    0.0      0.0      0.0   -9.90      0.2      0.0      5      3.7      2.9    80      3.8     2.9      77     15.1    1.88     -9     20      5      0      0    91.2    91.2      0     0.95      3.7      2.9      2.9    80    33.2    13.472     4.6    0.616      93        0.27     525.4    525.4    1.88   394.8     758.9     594.9     548.7     412.6     434.5     340.2    0.000     0.000     0.000     0.000     0.000    1.88     0.00    0.00      0   -9.90   -9.00       13.3       17.9       17.5       17.5       17.6       18.1       18.2       18.2       30.4       33.0       33.0       33.0        0.0        0.0        0.0        0.0        0.0        0.0        0.0        0.0        0.0        0.0        0.0        0.0      0.0       3.9      16.6      23.1      29.7    351.57
     5     6  1988    68     3     522.6     0.0      0.0    0.0    0.0    0.0      0.0      0.0   -9.90      0.2      0.0      5      3.6      2.8    79      3.7     2.8      76     15.8    1.90     -9     21      6      0      0    90.8    90.8      0     0.93      3.6      2.8      2.8    79    33.2    13.717     5.2    0.714      93        0.31     522.6    522.6    1.90   398.2     766.7     601.1     553.4     416.3     438.5     343.7    0.000     0.000     0.000     0.000     0.000    1.90     0.00    0.00      0   -9.90   -9.00       13.3       17.9       17.5       17.5       17.6       18.1       18.2       18.2       29.3       33.0       33.0       33.0        0.0        0.0        0.0        0.0        0.0        0.0        0.0        0.0        0.0        0.0        0.0        0.0      0.0       3.8      17.6      23.8      29.9    351.57
     6     6  1988    69     4     519.7     0.0      0.0    0.0    0.0    0.0      0.0      0.0   -9.90      0.2      0.0      5      3.7      2.8    76      3.9     2.8      73     15.0    1.92     -9     24      6      0      0    90.4    90.4      0     0.93      3.7      2.8      2.8    76    33.2    13.952     5.9    0.824      93        0.36     519.7    519.7    1.92   401.2     774.2     606.9     560.8     421.6     443.9     347.1    0.000     0.000     0.000     0.000     0.000    1.92     0.00    0.00      0   -9.90   -9.00       13.3       17.9       17.5       17.5       17.6       18.1       18.2       18.2       28.1       33.0       33.0       33.0        0.0        0.0        0.0        0.0        0.0        0.0        0.0        0.0        0.0        0.0        0.0        0.0      0.0       4.0      16.4      23.0      29.7    351.57
     7     6  1988    70     4     517.0     0.0      0.0    0.0    0.0    0.0      0.0      0.0   -9.90      0.2      0.0      5      3.7      2.8    75      3.9     2.8      72     15.4    1.94     -9     25      7      0      0    89.8    89.8      0     0.92      3.7      2.8      2.8    75    33.2    14.181     6.7    0.950      92        0.40     517.0    517.0    1.94   404.4     781.8     612.9     566.3     425.8     448.2     350.5    0.000     0.000     0.000     0.000     0.000    1.94     0.00    0.00      0   -9.90   -9.00       13.3       17.9       17.5       17.5       17.6       18.1       18.2       18.2       26.9       33.0       33.0       33.0        0.0        0.0        0.0        0.0        0.0        0.0        0.0        0.0        0.0        0.0        0.0        0.0      0.0       4.0      16.9      23.4      29.8    351.57
     8     6  1988    71     4     514.3     0.0      0.0    0.0    0.0    0.0      0.0      0.0   -9.90      0.2      0.0      5      3.6      2.7    74      3.8     2.7      70     14.7    1.96     -9     26      7      0      0    89.2    89.2      0     0.90      3.6      2.7      2.7    74    33.2    14.403     7.6    1.091      92        0.46     514.3    514.3    1.96   407.4     789.0     618.6     571.5     429.7     452.4     353.8    0.000     0.000     0.000     0.000     0.000    1.96     0.00    0.00      0   -9.90   -9.00       13.3       17.9       17.5       17.5       17.6       18.1       18.2       18.2       25.8       33.0       33.0       33.0        0.0        0.0        0.0        0.0        0.0        0.0        0.0        0.0        0.0        0.0        0.0        0.0      0.0       4.0      16.4      22.7      29.0    351.57
     9     6  1988    72     4     511.6     0.0      0.0    0.0    0.0    0.0      0.0      0.0   -9.90      0.2      0.0      5      3.7      2.7    72      4.0     2.7      68     15.1    1.98     -9     28      8      0      0    88.6    88.6      0     0.89      3.7      2.7      2.7    72    33.2    14.616     8.5    1.248      91        0.52     511.6    511.6    1.98   410.5     796.4     624.4     578.9     435.0     457.8     357.1    0.000     0.000     0.000     0.000     0.000    1.98     0.00    0.00      0   -9.90   -9.00       13.3       17.9       17.5       17.5       17.6       18.1       18.2       18.2       24.6       33.0       33.0       33.0        0.0        0.0        0.0        0.0        0.0        0.0        0.0        0.0        0.0        0.0        0.0        0.0      0.0       4.2      16.5      23.1      29.8    351.57
    10     6  1988    73     4     508.9     0.0      0.0    0.0    0.0    0.0      0.0      0.0   -9.90      0.3      0.0      5      3.9      2.7    69      4.2     2.7      65     14.9    2.00     -9     31      9      0      0    87.7    87.7      0     0.87      3.9      2.7      2.7    69    33.2    14.817     9.6    1.421      90        0.58     508.9    508.9    2.00   413.5     803.7     630.1     587.2     440.9     463.6     360.4    0.000     0.000     0.000     0.000     0.000    2.00     0.00    0.00      0   -9.90   -9.00       13.2       17.9       17.5       17.5       17.6       18.1       18.2       18.2       23.5       33.0       33.0       33.0        0.0        0.0        0.0        0.0        0.0        0.0        0.0        0.0        0.0        0.0        0.0        0.0      0.0       4.5      16.5      22.9      29.2    351.57
    11     6  1988    74     4     506.3     0.0      0.0    0.0    0.0    0.0      0.0      0.0   -9.90      0.3      0.0      5      3.6      2.5    70      3.9     2.5      65     14.2    2.01     -9     30      9      0      0    86.9    86.9      0     0.86      3.6      2.5      2.5    70    33.2    15.016    10.6    1.598      90        0.65     506.3    506.3    2.01   416.3     810.5     635.5     589.2     442.8     465.9     363.5    0.000     0.000     0.000     0.000     0.000    2.01     0.00    0.00      0   -9.90   -9.00       13.2       17.9       17.5       17.5       17.6       18.1       18.2       18.2       22.4       33.0       33.0       33.0        0.0        0.0        0.0        0.0        0.0        0.0        0.0        0.0        0.0        0.0        0.0        0.0      0.0       4.2      15.9      22.2      28.5    351.57
    12     6  1988    75     4     504.0     0.0      0.0    0.0    0.0    0.0      0.0      0.0   -9.90      0.3      0.0      5      3.4      2.4    70      3.7     2.4      65     13.9    2.03     -9     30      9      0      0    86.0    86.0      0     0.84      3.4      2.4      2.4    70    33.2    15.212    11.7    1.779      89        0.72     504.0    504.0    2.03   419.2     817.2     640.7     592.0     445.2     468.7     366.6    0.000     0.000     0.000     0.000     0.000    2.03     0.00    0.00      0   -9.90   -9.00       13.2       17.9       17.5       17.5       17.6       18.1       18.2       18.2       21.5       33.0       33.0       33.0        0.0        0.0        0.0        0.0        0.0        0.0        0.0        0.0        0.0        0.0        0.0        0.0      0.0       4.0      15.4      21.9      28.3    351.57
    13     6  1988    76     4     501.6     0.0      0.0    0.0    0.0    0.0      0.0      0.0   -9.90      0.3      0.0      5      3.4      2.3    69      3.7     2.3      63     14.3    2.05     -9     31     10      0      0    85.0    85.0      0     0.82      3.4      2.3      2.3    69    33.2    15.400    12.7    1.962      89        0.78     501.6    501.6    2.05   422.3     824.1     646.2     598.1     449.6     473.2     369.7    0.000     0.000     0.000     0.000     0.000    2.05     0.00    0.00      0   -9.90   -9.00       13.2       17.9       17.5       17.5       17.6       18.1       18.2       18.2       20.5       33.0       33.0       33.0        0.0        0.0        0.0        0.0        0.0        0.0        0.0        0.0        0.0        0.0        0.0        0.0      0.0       4.1      15.5      22.3      29.1    351.57
    14     6  1988    77     4     499.4     0.0      0.0    0.0    0.0    0.0      0.0      0.0   -9.90      0.4      0.0      5      3.1      2.2    69      3.5     2.2      63     14.0    2.06     -9     31      9      0      0    84.0    84.0      0     0.80      3.1      2.2      2.2    69    33.2    15.585    13.8    2.150      88        0.85     499.4    499.4    2.06   425.4     830.8     651.4     600.9     452.0     476.0     372.7    0.000     0.000     0.000     0.000     0.000    2.06     0.00    0.00      0   -9.90   -9.00       13.2       17.9       17.5       17.5       17.6       18.1       18.2       18.2       19.6       33.0       33.0       33.0        0.0        0.0        0.0        0.0        0.0        0.0        0.0        0.0        0.0        0.0        0.0        0.0      0.0       3.9      15.3      22.0      28.6    351.57
    15     6  1988    78     4     497.2     0.0      0.0    0.0    0.0    0.0      0.0      0.0   -9.90      0.4      0.0      5      3.2      2.2    68      3.6     2.2      60     13.8    2.08     -9     32     10      0      0    82.8    82.8      0     0.78      3.2      2.2      2.2    68    33.2    15.761    14.8    2.340      88        0.92     497.2    497.2    2.08   428.4     837.5     656.6     607.8     456.9     480.9     375.7    0.000     0.000     0.000     0.000     0.000    2.08     0.00    0.00      0   -9.90   -9.00       13.2       17.9       17.5       17.5       17.6       18.1       18.2       18.2       18.7       33.0       33.0       33.0        0.0        0.0        0.0        0.0        0.0        0.0        0.0        0.0        0.0        0.0        0.0        0.0      0.0       4.1      15.7      21.8      27.9    351.57
    16     6  1988    79     4     495.1     0.0      0.0    0.0    0.0    0.0      0.0      0.0   -9.90      0.5      0.0      5      3.1      2.1    67      3.6     2.1      59     13.4    2.10     -9     33     10      0      0    81.5    81.5      0     0.76      3.1      2.1      2.1    67    33.2    15.930    15.9    2.532      87        0.99     495.1    495.1    2.10   431.3     843.8     661.6     612.4     460.4     484.6     378.6    0.000     0.000     0.000     0.000     0.000    2.10     0.00    0.00      0   -9.90   -9.00       13.1       17.9       17.5       17.5       17.6       18.1       18.2       18.2       18.7       32.1       33.0       33.0        0.0        0.0        0.0        0.0        0.0        0.0        0.0        0.0        0.0        0.0        0.0        0.0      0.0       4.1      15.0      21.4      27.7    351.57
    17     6  1988    80     4     493.3     0.0      0.0    0.0    0.0    0.0      0.0      0.0   -9.90      0.4      0.0      5      2.5      1.8    70      2.9     1.8      61     12.0    2.11     -9     30      9      0      0    80.4    80.4      0     0.74      2.5      1.8      1.8    70    33.2    16.104    16.9    2.729      86        1.06     493.3    493.3    2.11   434.0     849.5     666.1     609.1     459.0     483.8     381.2    0.000     0.000     0.000     0.000     0.000    2.11     0.00    0.00      0   -9.90   -9.00       13.1       17.9       17.5       17.5       17.6       18.1       18.2       18.2       18.7       31.4       33.0       33.0        0.0        0.0        0.0        0.0        0.0        0.0        0.0        0.0        0.0        0.0        0.0        0.0      0.0       3.4      14.2      20.0      25.8    351.57
    18     6  1988    81     4     491.5     0.0      0.0    0.0    0.0    0.0      0.0      0.0   -9.90      0.5      0.0      5      2.7      1.9    68      3.2     1.9      58     12.3    2.13     -9     32     10      0      0    79.1    79.1      0     0.72      2.7      1.9      1.9    68    33.2    16.266    18.0    2.927      86        1.12     491.5    491.5    2.13   436.7     855.4     670.7     617.6     464.8     489.5     383.8    0.000     0.000     0.000     0.000     0.000    2.13     0.00    0.00      0   -9.90   -9.00       13.1       17.9       17.5       17.5       17.6       18.1       18.2       18.2       18.7       30.6       33.0       33.0        0.0        0.0        0.0        0.0        0.0        0.0        0.0        0.0        0.0        0.0        0.0        0.0      0.0       3.8      14.0      20.3      26.6    351.57
    19     6  1988    82     4     489.7     0.0      0.0    0.0    0.0    0.0      0.0      0.0   -9.90      0.5      0.0      5      2.6      1.8    68      3.1     1.8      57     12.8    2.14     -9     32     10      0      0    77.6    77.6      0     0.70      2.6      1.8      1.8    68    33.2    16.423    19.0    3.128      85        1.19     489.7    489.7    2.14   439.7     861.5     675.5     620.9     467.5     492.4     386.6    0.000     0.000     0.000     0.000     0.000    2.14     0.00    0.00      0   -9.90   -9.00       13.1       17.9       17.5       17.5       17.6       18.1       18.2       18.2       18.7       29.9       33.0       33.0        0.0        0.0        0.0        0.0        0.0        0.0        0.0        0.0        0.0        0.0        0.0        0.0      0.0       3.7      15.4      20.8      26.2    351.57
    20     6  1988    83     4     488.2     0.0      0.0    0.0    0.0    0.0      0.0      0.0   -9.90      0.5      0.0      5      2.0      1.5    72      2.5     1.5      60     12.8    2.16     -9     28      8      0      0    76.3    76.3      0     0.67      2.0      1.5      1.5    72    33.2    16.584    20.1    3.333      85        1.26     488.2    488.2    2.16   443.0     867.5     680.3     617.6     466.0     491.7     389.3    0.000     0.000     0.000     0.000     0.000    2.16     0.00    0.00      0   -9.90   -9.00       13.0       17.9       17.5       17.5       17.6       18.1       18.2       18.2       18.7       29.2       33.0       33.0        0.0        0.0        0.0        0.0        0.0        0.0        0.0        0.0        0.0        0.0        0.0        0.0      0.0       3.0      15.7      20.8      25.9    351.57
    21     6  1988    84     4     486.5     0.0      0.0    0.0    0.0    0.0      0.0      0.0   -9.90      0.6      0.0      5      2.4      1.6    68      3.0     1.7      55     13.1    2.17     -9     32     10      0      0    74.5    74.5      0     0.65      2.4      1.6      1.6    68    33.2    16.731    21.2    3.539      84        1.33     486.5    486.5    2.17   446.2     873.7     685.1     629.7     474.1     499.4     392.1    0.000     0.000     0.000     0.000     0.000    2.17     0.00    0.00      0   -9.90   -9.00       13.0       17.9       17.5       17.5       17.6       18.1       18.2       18.2       18.7       28.6       33.0       33.0        0.0        0.0        0.0        0.0        0.0        0.0        0.0        0.0        0.0        0.0        0.0        0.0      0.0       3.7      15.3      21.1      26.8    351.57
    22     6  1988    85     4     484.9     0.0      0.0    0.0    0.0    0.0      0.0      0.0   -9.90      0.7      0.0      5      2.4      1.6    67      3.0     1.6      53     12.8    2.19     -9     33     10      0      0    72.7    72.7      0     0.62      2.4      1.6      1.6    67    33.2    16.870    22.2    3.745      84        1.40     484.9    484.9    2.19   449.3     879.7     689.8     635.2     478.1     503.5     394.8    0.000     0.000     0.000     0.000     0.000    2.19     0.00    0.00      0   -9.90   -9.00       13.0       17.9       17.5       17.5       17.6       18.1       18.2       18.2       18.7       27.9       33.0       33.0        0.0        0.0        0.0        0.0        0.0        0.0        0.0        0.0        0.0        0.0        0.0        0.0      0.0       3.8      14.5      20.8      27.0    351.57
    23     6  1988    86     4     483.4     0.1      0.0    0.0    0.1    0.0      0.0      0.0   -9.90      0.7      0.1     18      2.1      1.5    69      2.8     1.6      56     12.7    2.20     -9     31     10      0      0    70.8    70.8      0     0.59      2.1      1.5      1.5    69    33.2    17.004    23.3    3.954      83        1.47     483.4    483.4    2.20   452.5     885.7     694.5     637.3     480.0     505.7     397.5    0.000     0.000     0.000     0.000     0.000    2.20     0.00    0.00      0   -9.90   -9.00       13.0       17.9       17.5       17.5       17.6       18.1       18.2       18.2       18.7       27.3       33.0       33.0        0.0        0.0        0.0        0.0        0.0        0.0        0.0        0.0        0.0        0.0        0.0        0.0      0.1       3.6      15.2      20.7      26.2    351.57
    24     6  1988    87     4     482.0     0.3      0.0    0.0    0.3    0.0      0.0      0.0   -9.90      0.7      0.3     43      2.0      1.4    69      2.7     1.7      62     13.1    2.22     -9     31      9      0      0    68.7    68.7      0     0.56      2.0      1.4      1.4    69    33.2    17.134    24.3    4.164      82        1.54     482.0    482.0    2.22   455.9     891.8     699.3     640.6     482.6     508.6     400.3    0.000     0.000     0.000     0.000     0.000    2.22     0.00    0.00      0   -9.90   -9.00       12.9       17.9       17.5       17.5       17.6       18.1       18.2       18.2       18.7       26.7       33.0       33.0        0.0        0.0        0.0        0.0        0.0        0.0        0.0        0.0        0.0        0.0        0.0        0.0      0.3       3.5      15.5      21.1      26.6    351.57
    25     6  1988    88     4     480.6     0.0      0.0    0.0    0.0    0.0      0.0      0.0   -9.90      0.9      0.0      5      2.1      1.4    67      3.0     1.5      48     13.5    2.23     -9     33     11      0      0    66.3    66.3      0     0.53      2.1      1.4      1.4    67    33.2    17.251    25.4    4.374      82        1.61     480.6    480.6    2.23   459.4     898.1     704.3     650.8     489.5     515.3     403.2    0.000     0.000     0.000     0.000     0.000    2.23     0.00    0.00      0   -9.90   -9.00       12.9       17.9       17.5       17.5       17.6       18.1       18.2       18.2       18.7       26.1       33.0       33.0        0.0        0.0        0.0        0.0        0.0        0.0        0.0        0.0        0.0        0.0        0.0        0.0      0.0       4.0      15.8      21.5      27.2    351.57
    26     6  1988    89     4     479.3     0.0      0.0    0.0    0.0    0.0      0.0      0.0   -9.90      0.9      0.0      5      1.8      1.3    69      2.8     1.3      47     13.4    2.25     -9     31     10      0      0    63.7    63.7      0     0.49      1.8      1.3      1.3    69    33.2    17.364    26.4    4.585      81        1.68     479.3    479.3    2.25   463.0     904.4     709.2     651.9     490.9     517.1     406.0    0.000     0.000     0.000     0.000     0.000    2.25     0.00    0.00      0   -9.90   -9.00       12.8       17.9       17.5       17.5       17.6       18.1       18.2       18.2       18.7       25.6       33.0       33.0        0.0        0.0        0.0        0.0        0.0        0.0        0.0        0.0        0.0        0.0        0.0        0.0      0.0       3.7      16.2      21.4      26.7    351.57
    27     6  1988    90     4     478.0     0.0      0.0    0.0    0.0    0.0      0.0      0.0   -9.90      1.1      0.0      5      1.8      1.2    68      2.9     1.3      44     13.6    2.26     -9     32     10      0      0    60.9    60.9      0     0.46      1.8      1.2      1.2    68    33.2    17.467    27.5    4.795      80        1.75     478.0    478.0    2.26   466.7     910.7     714.2     658.8     495.7     521.9     408.9    0.000     0.000     0.000     0.000     0.000    2.26     0.00    0.00      0   -9.90   -9.00       12.8       17.9       17.5       17.5       17.6       18.1       18.2       18.2       18.7       25.1       33.0       33.0        0.0        0.0        0.0        0.0        0.0        0.0        0.0        0.0        0.0        0.0        0.0        0.0      0.0       3.9      15.1      21.6      28.1    351.57
[...]
    25     6  2018    88     4     479.1     0.9      0.0    0.0    0.9    0.0      0.0      0.0   -9.90      0.5      0.5    100      2.4      1.7    70      2.9     2.2      76     14.7    2.26     -9     30      9      0      0    76.9    76.9      0     0.65      2.4      1.7      1.7    70    34.7    18.960    26.9    5.096      87        1.70     479.1    479.1    2.26   466.4     908.9     712.8     655.2     493.3     519.7     408.0    0.000     0.000     0.000     0.000     0.000    2.26     0.00    0.00      0   -9.90   -9.00       17.4       18.9       17.0       18.3       17.8       18.0       18.8       18.4       18.7       22.1       33.0       33.0        0.0        0.0        0.0        0.0        0.0        0.0        0.0        0.0        0.0        0.0        0.0        0.0      0.9       3.7      16.5      22.7      28.9    408.21
    26     6  2018    89     4     477.2     0.1      0.0    0.0    0.1    0.0      0.0      0.0   -9.90      0.7      0.2     23      2.8      1.8    66      3.5     2.0      57     15.0    2.28     -9     34     11      0      0    74.6    74.6      0     0.61      2.8      1.8      1.8    66    34.7    19.101    28.0    5.350      87        1.78     477.2    477.2    2.28   470.0     915.9     718.3     669.5     502.8     528.7     411.2    0.000     0.000     0.000     0.000     0.000    2.28     0.00    0.00      0   -9.90   -9.00       17.4       18.9       17.0       18.3       17.8       18.0       18.8       18.4       18.7       21.4       33.0       33.0        0.0        0.0        0.0        0.0        0.0        0.0        0.0        0.0        0.0        0.0        0.0        0.0      0.1       4.5      16.2      23.0      29.9    408.21
    27     6  2018    90     4     475.4     0.0      0.0    0.0    0.0    0.0      0.0      0.0   -9.90      0.8      0.1     11      2.6      1.7    67      3.4     1.8      53     14.5    2.29     -9     33     11      0      0    72.2    72.2      0     0.58      2.6      1.7      1.7    67    34.7    19.235    29.1    5.606      86        1.85     475.4    475.4    2.29   473.5     922.6     723.5     673.3     505.8     532.0     414.2    0.000     0.000     0.000     0.000     0.000    2.29     0.00    0.00      0   -9.90   -9.00       17.3       18.9       17.0       18.3       17.8       18.0       18.8       18.4       18.7       20.7       33.0       33.0        0.0        0.0        0.0        0.0        0.0        0.0        0.0        0.0        0.0        0.0        0.0        0.0      0.0       4.4      15.6      22.5      29.4    408.21
    28     6  2018    91     4     473.7     0.0      0.0    0.0    0.0    0.0      0.0      0.0   -9.90      0.9      0.1     11      2.4      1.6    65      3.3     1.7      50     13.9    2.30     -9     35     11      0      0    69.5    69.5      0     0.55      2.4      1.6      1.6    65    34.7    19.358    30.3    5.861      86        1.92     473.7    473.7    2.30   472.4     923.4     724.1     673.8     506.2     532.4     414.6    0.000     0.000     0.000     0.000     0.000    2.30     0.00    0.00      0   -9.90   -9.00       17.2       18.9       17.0       18.3       17.8       18.0       18.8       18.4       18.7       20.0       33.0       33.0        0.0        0.0        0.0        0.0        0.0        0.0        0.0        0.0        0.0        0.0        0.0        0.0      0.0       4.4      15.5      21.9      28.4    408.21
    29     6  2018    92     4     472.4     0.0      0.0    0.0    0.0    0.0      0.0      0.0   -9.90      0.7      0.1     11      1.8      1.2    68      2.5     1.3      51     13.1    2.30     -9     32     10      0      0    67.0    67.0      0     0.51      1.8      1.2      1.2    68    34.7    19.478    31.4    6.119      85        2.00     472.4    472.4    2.30   471.1     923.4     724.1     663.3     499.8     526.7     414.6    0.000     0.000     0.000     0.000     0.000    2.30     0.00    0.00      0   -9.90   -9.00       17.1       18.9       17.0       18.3       17.8       18.0       18.8       18.4       18.7       19.5       33.0       33.0        0.0        0.0        0.0        0.0        0.0        0.0        0.0        0.0        0.0        0.0        0.0        0.0      0.0       3.5      14.8      21.1      27.4    408.21
    30     6  2018    93     4     471.1     0.0      0.0    0.0    0.0    0.0      0.0      0.0   -9.90      1.0      0.1     11      2.0      1.2    63      2.9     1.3      46     14.1    2.30     -9     37     13      0      0    63.7    63.7      0     0.47      2.0      1.2      1.2    63    34.7    19.580    32.5    6.373      84        2.07     471.1    471.1    2.30   469.8     923.4     724.1     671.5     504.8     531.1     414.6    0.000     0.000     0.000     0.000     0.000    2.30     0.00    0.00      0   -9.90   -9.00       17.0       18.9       17.0       18.3       17.8       18.0       18.8       18.4       18.7       19.0       33.0       33.0        0.0        0.0        0.0        0.0        0.0        0.0        0.0        0.0        0.0        0.0        0.0        0.0      0.0       4.2      15.7      22.1      28.5    408.21
     1     7  2018    94     4     470.0     0.0      0.0    0.0    0.0    0.0      0.0      0.0   -9.90      0.9      0.1     10      1.6      1.0    63      2.5     1.1      44     13.4    2.30     -9     37     12      0      0    60.2    60.2      0     0.42      1.6      1.0      1.0    63    34.7    19.673    33.7    6.626      84        2.15     470.0    470.0    2.30   468.6     923.4     724.1     666.8     501.9     528.6     414.6    0.000     0.000     0.000     0.000     0.000    2.30     0.00    0.00      0   -9.90   -9.00       16.9       18.9       17.0       18.3       17.8       18.0       18.8       18.4       18.7       19.0       32.6       33.0        0.0        0.0        0.0        0.0        0.0        0.0        0.0        0.0        0.0        0.0        0.0        0.0      0.0       3.8      15.9      21.4      27.0    408.21
     2     7  2018    95     4     469.0     0.0      0.0    0.0    0.0    0.0      0.0      0.0   -9.90      1.0      0.1     10      1.5      0.9    61      2.5     1.0      40     14.4    2.30     -9     39     13      0      0    55.9    55.9      0     0.37      1.5      0.9      0.9    61    34.7    19.752    34.8    6.876      83        2.22     469.0    469.0    2.30   467.6     923.4     724.1     668.0     502.7     529.2     414.6    0.000     0.000     0.000     0.000     0.000    2.30     0.00    0.00      0   -9.90   -9.00       16.8       18.9       17.0       18.3       17.8       18.0       18.8       18.4       18.7       19.0       32.2       33.0        0.0        0.0        0.0        0.0        0.0        0.0        0.0        0.0        0.0        0.0        0.0        0.0      0.0       3.9      15.9      22.4      28.9    408.21
     3     7  2018    96     4     468.1     0.0      0.0    0.0    0.0    0.0      0.0      0.0   -9.90      1.2      0.1     10      1.3      0.8    58      2.6     0.9      35     15.3    2.30     -9     42     15      0      0    50.5    50.5      0     0.31      1.3      0.8      0.8    58    34.7    19.815    35.9    7.122      82        2.29     468.1    468.1    2.30   466.7     923.4     724.1     672.6     505.5     531.8     414.6    0.000     0.000     0.000     0.000     0.000    2.30     0.00    0.00      0   -9.90   -9.00       16.6       18.9       17.0       18.3       17.8       18.0       18.8       18.4       18.7       19.0       31.9       33.0        0.0        0.0        0.0        0.0        0.0        0.0        0.0        0.0        0.0        0.0        0.0        0.0      0.0       4.3      16.6      23.4      30.1    408.21
     4     7  2018    97     4     467.3     0.0      0.0    0.0    0.0    0.0      0.0      0.0   -9.90      1.4      0.1     10      1.1      0.6    57      2.5     0.8      31     14.8    2.30     -9     43     16      0      0    44.4    44.4      0     0.25      1.1      0.6      0.6    57    34.7    19.864    37.1    7.364      82        2.37     467.3    467.3    2.30   466.0     923.4     724.1     673.8     506.2     532.4     414.6    0.000     0.000     0.000     0.000     0.000    2.30     0.00    0.00      0   -9.90   -9.00       16.5       18.9       17.0       18.3       17.8       18.0       18.8       18.4       18.7       19.0       31.6       33.0        0.0        0.0        0.0        0.0        0.0        0.0        0.0        0.0        0.0        0.0        0.0        0.0      0.0       4.4      16.7      22.8      28.9    408.21
     5     7  2018    98     4     466.8     0.0      0.0    0.0    0.0    0.0      0.0      0.0   -9.90      1.5      0.1      9      0.8      0.4    56      2.3     0.6      26     15.5    2.30     -9     44     16      0      0    37.1    37.1      0     0.18      0.8      0.4      0.4    56    34.7    19.899    38.2    7.601      81        2.44     466.8    466.8    2.30   465.4     923.4     724.1     673.8     506.2     532.4     414.6    0.000     0.000     0.000     0.000     0.000    2.30     0.00    0.00      0   -9.90   -9.00       16.4       18.9       17.0       18.3       17.8       18.0       18.8       18.4       18.7       19.0       31.4       33.0        0.0        0.0        0.0        0.0        0.0        0.0        0.0        0.0        0.0        0.0        0.0        0.0      0.0       4.4      17.4      23.5      29.7    408.21
     6     7  2018    99     4     466.3     0.0      0.0    0.0    0.0    0.0      0.0      0.0   -9.90      1.7      0.2      9      0.5      0.3    56      2.2     0.4      20     15.3    2.30     -9     44     17      0      0    29.0    29.0      0     0.11      0.5      0.3      0.3    56    34.7    19.922    39.3    7.834      80        2.51     466.3    466.3    2.30   465.0     923.4     724.1     672.6     505.5     531.8     414.6    0.000     0.000     0.000     0.000     0.000    2.30     0.00    0.00      0   -9.90   -9.00       16.2       18.9       17.0       18.3       17.8       18.0       18.8       18.4       18.7       19.0       31.3       33.0        0.0        0.0        0.0        0.0        0.0        0.0        0.0        0.0        0.0        0.0        0.0        0.0      0.0       4.3      16.6      23.6      30.5    408.21
     7     7  2018   100     4     466.0     0.0      0.0    0.0    0.0    0.0      0.0      0.0   -9.90      1.9      0.2      9      0.2      0.1    57      2.1     0.3      14     14.9    2.30     -9     43     16      0      0    20.2    20.2      0     0.06      0.2      0.1      0.1    57    34.7    19.933    40.5    8.064      79        2.58     466.0    466.0    2.30   464.7     923.4     724.1     669.1     503.4     529.9     414.6    0.000     0.000     0.000     0.000     0.000    2.30     0.00    0.00      0   -9.90   -9.00       16.0       18.9       17.0       18.3       17.8       18.0       18.8       18.4       18.7       19.0       31.2       33.0        0.0        0.0        0.0        0.0        0.0        0.0        0.0        0.0        0.0        0.0        0.0        0.0      0.0       4.0      16.4      22.9      29.5    408.21
     8     7  2018   101     4     465.8     0.0      0.0    0.0    0.0    0.0      0.0      0.0   -9.90      2.3      0.2      9      0.1      0.0    56      2.4     0.2      10     14.9    2.30     -9     44     16      0      0    10.4    10.4      0     0.02      0.1      0.0      0.0    56    34.7    19.936    41.6    8.290      79        2.65     465.8    465.8    2.30   464.4     923.4     724.1     669.1     503.4     529.9     414.6    0.000     0.000     0.000     0.000     0.000    2.30     0.00    0.00      0   -9.90   -9.00       15.8       18.9       17.0       18.3       17.8       18.0       18.8       18.4       18.7       19.0       31.2       33.0        0.0        0.0        0.0        0.0        0.0        0.0        0.0        0.0        0.0        0.0        0.0        0.0      0.0       4.0      16.3      22.9      29.4    408.21
     9     7  2018   102     4     465.6     0.0      0.0    0.0    0.0    0.0      0.0      0.0   -9.90      2.5      0.2      8      0.0      0.0   100      2.5     0.2       8     15.3    2.30     -9     -9     17      0     -9     0.0     0.0      0    -9.00      0.0      0.0      0.0   100    34.7    19.936    42.3    8.442      78        2.70     465.6    465.6    2.30   464.2     923.4     724.1     672.6     505.5     531.8     414.6    0.000     0.000     0.000     0.000     0.000    2.30     0.00    0.00      0   -9.90   -9.00       15.6       18.9       17.0       18.3       17.8       18.0       18.8       18.4       18.7       19.0       31.2       33.0        0.0        0.0        0.0        0.0        0.0        0.0        0.0        0.0        0.0        0.0        0.0        0.0      0.0       4.3      16.9      23.3      29.6    408.21
    10     7  2018   103    -9     465.4     0.0      0.0    0.0    0.0    0.0      0.0      0.0   -9.90      2.3      0.2      8      0.0      0.0   100      2.3     0.2       8     15.3    2.30     -9     -9     17      0     -9     0.0     0.0      0    -9.00      0.0      0.0      0.0   100    34.7    19.936    42.3    8.442      78        2.70     465.4    465.4    2.30   464.0     923.4     724.1     672.6     503.4     531.8     414.6    0.000     0.000     0.000     0.000     0.000    2.30     0.00    0.00      0   -9.90   -9.00       15.4       18.9       17.0       18.3       17.8       18.0       18.8       18.4       18.7       19.0       31.2       33.0        0.0        0.0        0.0        0.0        0.0        0.0        0.0        0.0        0.0        0.0        0.0        0.0      0.0       4.0      16.9      23.3      29.6    408.21
    11     7  2018   104    -9     465.2     0.0      0.0    0.0    0.0    0.0      0.0      0.0   -9.90      2.5      0.2      8      0.0      0.0   100      2.5     0.2       8     15.4    2.30     -9     -9     17      0     -9     0.0     0.0      0    -9.00      0.0      0.0      0.0   100    34.7    19.936    42.3    8.442      77        2.70     465.2    465.2    2.30   463.8     923.4     724.1     672.6     506.2     531.8     414.6    0.000     0.000     0.000     0.000     0.000    2.30     0.00    0.00      0   -9.90   -9.00       15.2       18.9       17.0       18.3       17.8       18.0       18.8       18.4       18.7       19.0       31.2       33.0        0.0        0.0        0.0        0.0        0.0        0.0        0.0        0.0        0.0        0.0        0.0        0.0      0.0       4.4      16.9      23.7      30.5    408.21
    12     7  2018   105    -9     465.0     0.0      0.0    0.0    0.0    0.0      0.0      0.0   -9.90      2.5      0.2      7      0.0      0.0   100      2.5     0.2       7     15.4    2.30     -9     -9     17      0     -9     0.0     0.0      0    -9.00      0.0      0.0      0.0   100    34.7    19.936    42.3    8.442      77        2.70     465.0    465.0    2.30   463.7     923.4     724.1     672.6     505.5     531.8     414.6    0.000     0.000     0.000     0.000     0.000    2.30     0.00    0.00      0   -9.90   -9.00       15.0       18.9       17.0       18.3       17.8       18.0       18.8       18.4       18.7       19.0       31.2       33.0        0.0        0.0        0.0        0.0        0.0        0.0        0.0        0.0        0.0        0.0        0.0        0.0      0.0       4.3      16.8      23.9      31.0    408.21
    13     7  2018   106    -9     464.8     0.0      0.0    0.0    0.0    0.0      0.0      0.0   -9.90      2.4      0.2      7      0.0      0.0   100      2.4     0.2       7     15.4    2.30     -9     -9     17      0     -9     0.0     0.0      0    -9.00      0.0      0.0      0.0   100    34.7    19.936    42.3    8.442      77        2.70     464.8    464.8    2.30   463.5     923.4     724.1     672.6     504.8     531.8     414.6    0.000     0.000     0.000     0.000     0.000    2.30     0.00    0.00      0   -9.90   -9.00       14.8       18.9       17.0       18.3       17.8       18.0       18.8       18.4       18.7       19.0       31.2       33.0        0.0        0.0        0.0        0.0        0.0        0.0        0.0        0.0        0.0        0.0        0.0        0.0      0.0       4.2      16.8      23.8      30.8    408.21
    14     7  2018   107    -9     464.7     0.0      0.0    0.0    0.0    0.0      0.0      0.0   -9.90      2.6      0.2      7      0.0      0.0   100      2.6     0.2       7     15.6    2.30     -9     -9     17      0     -9     0.0     0.0      0    -9.00      0.0      0.0      0.0   100    34.7    19.936    42.3    8.442      77        2.70     464.7    464.7    2.30   463.3     923.4     724.1     672.6     507.7     531.8     414.6    0.000     0.000     0.000     0.000     0.000    2.30     0.00    0.00      0   -9.90   -9.00       14.6       18.9       17.0       18.3       17.8       18.0       18.8       18.4       18.7       19.0       31.2       33.0        0.0        0.0        0.0        0.0        0.0        0.0        0.0        0.0        0.0        0.0        0.0        0.0      0.0       4.6      17.3      24.5      31.6    408.21
    15     7  2018   108    -9     464.5     0.0      0.0    0.0    0.0    0.0      0.0      0.0   -9.90      2.4      0.2      7      0.0      0.0   100      2.4     0.2       7     15.4    2.30     -9     -9     17      0     -9     0.0     0.0      0    -9.00      0.0      0.0      0.0   100    34.7    19.936    42.3    8.442      77        2.70     464.5    464.5    2.30   463.1     923.4     724.1     672.6     504.8     531.8     414.6    0.000     0.000     0.000     0.000     0.000    2.30     0.00    0.00      0   -9.90   -9.00       14.5       18.9       17.0       18.3       17.8       18.0       18.8       18.4       18.7       19.0       31.2       33.0        0.0        0.0        0.0        0.0        0.0        0.0        0.0        0.0        0.0        0.0        0.0        0.0      0.0       4.2      16.9      24.0      31.1    408.21
    16     7  2018   109    -9     464.3     0.0      0.0    0.0    0.0    0.0      0.0      0.0   -9.90      2.4      0.2      7      0.0      0.0   100      2.4     0.2       7     15.4    2.30     -9     -9     17      0     -9     0.0     0.0      0    -9.00      0.0      0.0      0.0   100    34.7    19.936    42.3    8.442      77        2.70     464.3    464.3    2.30   463.0     923.4     724.1     672.6     504.8     531.8     414.6    0.000     0.000     0.000     0.000     0.000    2.30     0.00    0.00      0   -9.90   -9.00       14.3       18.9       17.0       18.3       17.8       18.0       18.8       18.4       18.7       19.0       31.2       33.0        0.0        0.0        0.0        0.0        0.0        0.0        0.0        0.0        0.0        0.0        0.0        0.0      0.0       4.2      16.7      23.5      30.4    408.21
    17     7  2018   110    -9     464.2     0.0      0.0    0.0    0.0    0.0      0.0      0.0   -9.90      2.2      0.1      6      0.0      0.0   100      2.2     0.1       6     14.9    2.30     -9     -9     17      0     -9     0.0     0.0      0    -9.00      0.0      0.0      0.0   100    34.7    19.936    42.3    8.442      77        2.70     464.2    464.2    2.30   462.8     923.4     724.1     672.6     501.9     531.8     414.6    0.000     0.000     0.000     0.000     0.000    2.30     0.00    0.00      0   -9.90   -9.00       14.2       18.9       17.0       18.3       17.8       18.0       18.8       18.4       18.7       19.0       31.2       33.0        0.0        0.0        0.0        0.0        0.0        0.0        0.0        0.0        0.0        0.0        0.0        0.0      0.0       3.8      16.9      22.9      28.8    408.21
