AquaCrop 6.0 (March 2017) - Output created on (date) : 10/16/2019   at (time) : 2:53:03 PM

    RunNr     Day1   Month1    Year1     Rain      ETo       GD     CO2      Irri   Infilt   Runoff    Drain   Upflow        E     E/Ex       Tr      TrW   Tr/Trx    SaltIn   SaltOut    SaltUp  SaltProf     Cycle   SaltStr  FertStr  WeedStr  TempStr   ExpStr   StoStr  BioMass  Brelative   HI     Yield     WPet     DayN   MonthN    YearN
                                           mm       mm    °C.day    ppm        mm       mm       mm       mm       mm       mm        %       mm       mm        %    ton/ha    ton/ha    ton/ha    ton/ha      days       %        %        %        %        %        %    ton/ha        %       %    ton/ha    kg/m3
   Tot(1)       30        3     1988     27.7    487.3   1705.7   351.57      0.0     27.7      0.0      0.0      0.0     52.9       26    229.9    229.9       89     0.000     0.000     0.000     0.000       97        0        0        0        0       28       12    17.958       69     40.4    7.252     2.58       21        7     1988  maiz_fecha3.PRM
   Tot(2)       30        3     1989     27.8    477.2   1705.3   352.12      0.0     27.8      0.0      0.0      0.0     55.5       28    224.9    224.9       90     0.000     0.000     0.000     0.000       97        0        0        0        0       28       12    18.289       70     40.4    7.393     2.64       21        7     1989  maiz_fecha3.PRM
   Tot(3)       30        3     1990     29.9    475.2   1700.5   354.39      0.0     29.9      0.0      0.0      0.0     54.4       28    228.3    228.3       89     0.000     0.000     0.000     0.000       94        0        0        0        0       27       11    17.557       70     40.5    7.108     2.53       16        7     1990  maiz_fecha3.PRM
   Tot(4)       30        3     1991     49.2    478.7   1707.4   355.61      0.0     49.2      0.0      0.0      0.0     59.0       33    253.3    253.3       91     0.000     0.000     0.000     0.000       99        0        0        0        0       15       12    19.874       78     44.3    8.799     2.83       18        7     1991  maiz_fecha3.PRM
   Tot(5)       30        3     1992     58.2    457.9   1703.6   356.45      0.0     56.8      1.4      1.4      0.0     69.4       43    247.0    247.0       90     0.000     0.000     0.000     0.000       93        0        0        0        0        9       11    18.967       78     43.4    8.230     2.61       12        7     1992  maiz_fecha3.PRM
   Tot(6)       30        3     1993    128.4    440.1   1713.7   356.10      0.0    119.6      8.8     10.1      0.0     73.8       52    284.7    284.7       98     0.000     0.000     0.000     0.000      103        0        0        0        0        1        3    24.429       98     48.1   11.747     3.28       16        7     1993  maiz_fecha3.PRM
   Tot(7)       30        3     1994     32.1    484.2   1707.0   358.83      0.0     32.0      0.1      0.0      0.0     56.2       28    227.9    227.9       89     0.000     0.000     0.000     0.000       93        0        0        0        0       26       12    17.423       69     38.4    6.686     2.37       17        7     1994  maiz_fecha3.PRM
   Tot(8)       30        3     1995     18.2    469.2   1702.7   360.82      0.0     18.2      0.0      0.0      0.0     43.4       23    227.6    227.6       90     0.000     0.000     0.000     0.000       97        0        0        0        0       28       11    18.291       70     39.4    7.212     2.69       20        7     1995  maiz_fecha3.PRM
   Tot(9)       30        3     1996     21.7    471.6   1702.0   362.61      0.0     21.7      0.0      0.0      0.0     48.5       25    227.6    227.6       90     0.000     0.000     0.000     0.000      101        0        0        0        0       27       12    18.744       70     41.4    7.766     2.82       22        7     1996  maiz_fecha3.PRM
  Tot(10)       30        3     1997     23.5    462.5   1709.7   363.73      0.0     23.5      0.0      0.0      0.0     49.4       27    227.4    227.4       90     0.000     0.000     0.000     0.000       91        0        0        0        0       25       11    17.231       72     41.5    7.153     2.60       11        7     1997  maiz_fecha3.PRM
  Tot(11)       30        3     1998     58.3    432.9   1714.7   366.70      0.0     56.9      1.4      1.1      0.0     71.5       51    255.4    255.4       91     0.000     0.000     0.000     0.000      100        0        0        0        0        8       11    21.950       89     48.2   10.572     3.24       13        7     1998  maiz_fecha3.PRM
  Tot(12)       30        3     1999     37.9    471.3   1702.3   368.38      0.0     37.9      0.0      0.0      0.0     54.3       31    243.4    243.4       90     0.000     0.000     0.000     0.000      103        0        0        0        0       13       12    20.295       75     43.4    8.807     2.97       22        7     1999  maiz_fecha3.PRM
  Tot(13)       30        3     2000     48.0    430.1   1704.5   369.55      0.0     48.0      0.0      0.0      0.0     62.3       43    253.4    253.4       92     0.000     0.000     0.000     0.000      107        0        0        0        0       10       11    22.782       88     48.4   11.016     3.49       19        7     2000  maiz_fecha3.PRM
  Tot(14)       30        3     2001     41.2    429.7   1709.8   371.14      0.0     41.2      0.0      0.0      0.0     54.3       40    256.7    256.7       91     0.000     0.000     0.000     0.000      106        0        0        0        0        8       11    23.039       89     48.2   11.103     3.57       18        7     2001  maiz_fecha3.PRM
  Tot(15)       30        3     2002     26.2    460.7   1712.8   373.28      0.0     26.2      0.0      0.0      0.0     49.8       29    233.2    233.2       89     0.000     0.000     0.000     0.000       94        0        0        0        0       15       12    18.690       74     41.4    7.732     2.75       16        7     2002  maiz_fecha3.PRM
  Tot(16)       30        3     2003     24.0    477.9   1706.5   375.80      0.0     24.0      0.0      0.0      0.0     49.4       25    224.8    224.8       89     0.000     0.000     0.000     0.000       95        0        0        0        0       29       12    17.507       68     39.5    6.907     2.53       17        7     2003  maiz_fecha3.PRM
  Tot(17)       30        3     2004     18.3    492.2   1711.6   377.52      0.0     18.3      0.0      0.0      0.0     46.6       21    215.4    215.4       89     0.000     0.000     0.000     0.000       92        0        0        0        0       33       12    16.124       62     36.4    5.869     2.26       18        7     2004  maiz_fecha3.PRM
  Tot(18)       30        3     2005     12.0    493.4   1711.1   379.80      0.0     11.7      0.3      0.0      0.0     41.5       19    216.2    216.2       89     0.000     0.000     0.000     0.000       93        0        0        0        0       31       12    16.773       65     38.4    6.448     2.51       17        7     2005  maiz_fecha3.PRM
  Tot(19)       30        3     2006      6.8    495.3   1709.4   381.90      0.0      6.8      0.0      0.0      0.0     36.9       16    205.0    205.0       88     0.000     0.000     0.000     0.000       92        0        0        0        0       36       12    14.905       58     36.4    5.430     2.25       17        7     2006  maiz_fecha3.PRM
  Tot(20)       30        3     2007     22.5    498.4   1705.0   383.79      0.0     22.5      0.0      0.0      0.0     48.9       22    215.9    215.9       89     0.000     0.000     0.000     0.000       93        0        0        0        0       32       12    16.668       63     35.4    5.895     2.24       20        7     2007  maiz_fecha3.PRM
  Tot(21)       30        3     2008     30.3    448.6   1713.8   385.60      0.0     30.3      0.0      0.0      0.0     51.8       32    241.3    241.3       91     0.000     0.000     0.000     0.000      103        0        0        0        0       12       11    21.129       80     46.4    9.803     3.35       20        7     2008  maiz_fecha3.PRM
  Tot(22)       30        3     2009     12.6    469.8   1707.7   387.43      0.0     12.6      0.0      0.0      0.0     40.7       21    219.0    219.0       89     0.000     0.000     0.000     0.000       92        0        0        0        0       29       12    16.952       67     39.5    6.692     2.58       15        7     2009  maiz_fecha3.PRM
  Tot(23)       30        3     2010     27.1    480.5   1710.4   389.90      0.0     27.1      0.0      0.0      0.0     50.1       27    231.6    231.6       89     0.000     0.000     0.000     0.000       93        0        0        0        0       15       12    18.144       70     38.4    6.963     2.49       17        7     2010  maiz_fecha3.PRM
  Tot(24)       30        3     2011     34.8    473.1   1710.4   391.65      0.0     34.8      0.0      0.0      0.0     59.8       31    224.3    224.3       90     0.000     0.000     0.000     0.000       94        0        0        0        0       28       12    17.598       69     38.4    6.765     2.42       17        7     2011  maiz_fecha3.PRM
  Tot(25)       30        3     2012     22.3    455.9   1702.4   393.85      0.0     22.3      0.0      0.0      0.0     46.5       27    232.6    232.6       90     0.000     0.000     0.000     0.000       94        0        0        0        0       19       11    18.577       75     43.5    8.079     2.90       13        7     2012  maiz_fecha3.PRM
  Tot(26)       30        3     2013     21.4    488.6   1705.0   396.52      0.0     21.4      0.0      0.0      0.0     42.2       22    238.3    238.3       90     0.000     0.000     0.000     0.000       98        0        0        0        0       26       12    19.541       74     40.4    7.886     2.83       19        7     2013  maiz_fecha3.PRM
  Tot(27)       30        3     2014     14.4    465.1   1704.4   398.65      0.0     14.4      0.0      0.0      0.0     41.6       23    234.4    234.4       90     0.000     0.000     0.000     0.000       95        0        0        0        0       13       11    19.534       79     44.4    8.666     3.15       12        7     2014  maiz_fecha3.PRM
  Tot(28)       30        3     2015     57.9    439.4   1715.0   400.83      0.0     57.9      0.0      0.0      0.0     52.4       38    270.6    270.6       94     0.000     0.000     0.000     0.000       98        0        0        0        0        9        7    22.715       93     48.1   10.932     3.39       11        7     2015  maiz_fecha3.PRM
  Tot(29)       30        3     2016     24.1    481.5   1706.7   404.21      0.0     24.1      0.0      0.0      0.0     51.2       26    218.1    218.1       89     0.000     0.000     0.000     0.000       87        0        0        0        0       29       12    16.125       65     36.4    5.875     2.19       12        7     2016  maiz_fecha3.PRM
  Tot(30)       30        3     2017     50.1    419.3   1700.7   406.21      0.0     45.8      4.3      9.1      0.0     50.9       39    254.9    254.9       92     0.000     0.000     0.000     0.000      102        0        0        0        0        8       10    22.815       90     48.2   10.992     3.60       14        7     2017  maiz_fecha3.PRM
  Tot(31)       30        3     2018     53.3    473.8   1705.2   408.21      0.0     53.0      0.3      0.0      0.0     69.1       40    245.2    245.2       90     0.000     0.000     0.000     0.000       96        0        0        0        0       10       11    19.936       77     42.3    8.442     2.70       17        7     2018  maiz_fecha3.PRM
