AquaCrop 6.0 (March 2017) - Output created on (date) : 10/16/2019   at (time) : 2:52:14 PM

    RunNr     Day1   Month1    Year1     Rain      ETo       GD     CO2      Irri   Infilt   Runoff    Drain   Upflow        E     E/Ex       Tr      TrW   Tr/Trx    SaltIn   SaltOut    SaltUp  SaltProf     Cycle   SaltStr  FertStr  WeedStr  TempStr   ExpStr   StoStr  BioMass  Brelative   HI     Yield     WPet     DayN   MonthN    YearN
                                           mm       mm    °C.day    ppm        mm       mm       mm       mm       mm       mm        %       mm       mm        %    ton/ha    ton/ha    ton/ha    ton/ha      days       %        %        %        %        %        %    ton/ha        %       %    ton/ha    kg/m3
   Tot(1)       22       12     1988    124.5    507.9   1705.5   351.85      0.0    124.4      0.1      0.0      0.0     71.6       44    310.1    310.1       93     0.000     0.000     0.000     0.000      101        0        0        0        0       11        8    21.674       91     48.3   10.469     2.75        7        4     1989  maiz_fecha1.PRM
   Tot(2)       22       12     1989     62.0    558.1   1712.1   353.25      0.0     62.0      0.0      0.0      0.0     70.5       28    229.4    229.4       87     0.000     0.000     0.000     0.000       83        0        0        0        0       31       12    14.409       61     30.3    4.367     1.56        6        4     1990  maiz_fecha1.PRM
   Tot(3)       22       12     1990    138.1    528.4   1710.2   355.00      0.0    131.7      6.4      5.7      0.0     85.7       48    296.7    296.7       91     0.000     0.000     0.000     0.000       97        0        0        0        0       12       10    19.485       82     47.5    9.257     2.43        6        4     1991  maiz_fecha1.PRM
   Tot(4)       22       12     1991     60.1    520.2   1708.4   356.03      0.0     60.0      0.1      0.0      0.0     61.5       27    236.3    236.3       89     0.000     0.000     0.000     0.000       86        0        0        0        0       30       11    15.344       67     36.5    5.594     1.95        1        4     1992  maiz_fecha1.PRM
   Tot(5)       22       12     1992     87.3    527.0   1715.8   356.27      0.0     87.3      0.0      0.0      0.0     63.3       34    281.5    281.5       88     0.000     0.000     0.000     0.000       98        0        0        0        0       27       12    18.830       80     48.6    9.147     2.68        5        4     1993  maiz_fecha1.PRM
   Tot(6)       22       12     1993     75.5    500.4   1703.2   357.47      0.0     75.5      0.0      0.0      0.0     79.1       40    245.4    245.4       89     0.000     0.000     0.000     0.000       91        0        0        0        0       27       11    17.118       72     42.6    7.285     2.33        5        4     1994  maiz_fecha1.PRM
   Tot(7)       22       12     1994    256.9    475.4   1704.9   359.82      0.0    241.7     15.2      0.0      0.0     46.2       30    315.2    315.2      100     0.000     0.000     0.000     0.000       99        0        0        0        0        7        0    23.672       98     48.0   11.369     3.15        5        4     1995  maiz_fecha1.PRM
   Tot(8)       22       12     1995     77.5    523.4   1709.6   361.72      0.0     77.5      0.0      0.0      0.0     89.3       39    230.1    230.1       88     0.000     0.000     0.000     0.000       90        0        0        0        0       34       11    15.540       64     37.5    5.826     1.87        6        4     1996  maiz_fecha1.PRM
   Tot(9)       22       12     1996     49.1    559.0   1706.3   363.17      0.0     49.1      0.0      0.0      0.0     67.3       26    216.3    216.3       87     0.000     0.000     0.000     0.000       81        0        0        0        0       36       12    13.646       57     27.3    3.726     1.35        6        4     1997  maiz_fecha1.PRM
  Tot(10)       22       12     1997    589.8    415.5   1712.7   365.22      0.0    491.1     98.7    107.7      0.0    101.9       78    277.1    277.1      100     0.000     0.000     0.000     0.000       92        0        0        0        0        0        0    22.233      100     48.0   10.672     2.84       28        3     1998  maiz_fecha1.PRM
  Tot(11)       22       12     1998    107.9    506.6   1706.0   367.54      0.0    107.8      0.1      0.0      0.0     53.5       34    316.7    316.7       94     0.000     0.000     0.000     0.000      101        0        0        0        0       11        8    22.435       92     48.0   10.779     2.92        7        4     1999  maiz_fecha1.PRM
  Tot(12)       22       12     1999     76.4    506.0   1704.8   368.97      0.0     76.4      0.0      0.0      0.0     59.1       32    279.4    279.4       90     0.000     0.000     0.000     0.000      101        0        0        0        0       21       10    20.718       86     48.4   10.027     2.97        6        4     2000  maiz_fecha1.PRM
  Tot(13)       22       12     2000    107.4    479.9   1713.0   370.35      0.0    107.4      0.0      0.0      0.0     71.8       43    272.3    272.3       92     0.000     0.000     0.000     0.000       99        0        0        0        0       13        6    20.074       84     48.8    9.787     2.85        5        4     2001  maiz_fecha1.PRM
  Tot(14)       22       12     2001     83.1    500.7   1705.5   372.21      0.0     81.5      1.6      0.0      0.0     81.3       38    231.9    231.9       89     0.000     0.000     0.000     0.000       97        0        0        0        0       29       10    16.287       69     47.6    7.761     2.49        3        4     2002  maiz_fecha1.PRM
  Tot(15)       22       12     2002     38.6    519.6   1710.2   374.54      0.0     38.6      0.0      0.0      0.0     62.2       28    223.8    223.8       87     0.000     0.000     0.000     0.000       84        0        0        0        0       15       12    15.585       66     34.4    5.358     1.95        2        4     2003  maiz_fecha1.PRM
  Tot(16)       22       12     2003     58.9    548.2   1715.8   376.66      0.0     58.5      0.4      0.0      0.0     78.4       31    214.8    214.8       87     0.000     0.000     0.000     0.000       80        0        0        0        0       32       12    13.849       58     28.3    3.920     1.38        3        4     2004  maiz_fecha1.PRM
  Tot(17)       22       12     2004     29.0    548.0   1710.1   378.66      0.0     29.0      0.0      0.0      0.0     56.1       20    195.8    195.8       86     0.000     0.000     0.000     0.000       99        0        0        0        0       39       12    12.446       52     27.3    3.398     1.35        4        4     2005  maiz_fecha1.PRM
  Tot(18)       22       12     2005     45.7    539.7   1713.3   380.85      0.0     45.7      0.0      0.0      0.0     62.0       28    238.9    238.9       84     0.000     0.000     0.000     0.000       91        0        0        0        0       31       15    15.514       66     43.4    6.739     2.26        4        4     2006  maiz_fecha1.PRM
  Tot(19)       22       12     2006     51.0    537.3   1702.0   382.85      0.0     51.0      0.0      0.0      0.0     63.7       27    229.6    229.6       87     0.000     0.000     0.000     0.000       97        0        0        0        0       15       15    14.896       63     33.3    4.967     1.69        2        4     2007  maiz_fecha1.PRM
  Tot(20)       22       12     2007    153.2    470.3   1707.4   384.70      0.0    152.8      0.4      0.0      0.0     67.1       44    310.7    310.7      100     0.000     0.000     0.000     0.000      100        0        0        0        0        8        0    24.008       99     48.4   11.624     3.08        5        4     2008  maiz_fecha1.PRM
  Tot(21)       22       12     2008     67.5    468.4   1711.5   386.51      0.0     67.5      0.0      0.0      0.0     52.8       34    276.7    276.7       92     0.000     0.000     0.000     0.000       99        0        0        0        0        7       10    21.633       90     48.4   10.476     3.18        5        4     2009  maiz_fecha1.PRM
  Tot(22)       22       12     2009     49.2    463.1   1712.2   388.66      0.0     49.1      0.1      0.0      0.0     48.1       31    263.7    263.7       90     0.000     0.000     0.000     0.000       93        0        0        0        0       13       11    19.486       84     47.2    9.205     3.01        1        4     2010  maiz_fecha1.PRM
  Tot(23)       22       12     2010     43.8    522.0   1705.3   390.77      0.0     43.8      0.0      0.0      0.0     67.7       30    218.0    218.0       86     0.000     0.000     0.000     0.000       84        0        0        0        0       27       12    15.189       62     31.3    4.754     1.78        6        4     2011  maiz_fecha1.PRM
  Tot(24)       22       12     2011    107.1    479.0   1709.2   392.75      0.0    106.6      0.5      0.0      0.0     58.5       40    302.4    302.4       95     0.000     0.000     0.000     0.000       99        0        0        0        0        8        6    22.568       93     48.3   10.893     3.03        4        4     2012  maiz_fecha1.PRM
  Tot(25)       22       12     2012     65.3    485.9   1708.6   395.19      0.0     65.3      0.0      0.0      0.0     58.4       33    259.0    259.0       90     0.000     0.000     0.000     0.000       96        0        0        0        0       11       11    19.155       80     48.7    9.323     2.96        4        4     2013  maiz_fecha1.PRM
  Tot(26)       22       12     2013     46.9    499.5   1716.5   397.58      0.0     46.9      0.0      0.0      0.0     61.1       30    237.9    237.9       89     0.000     0.000     0.000     0.000       91        0        0        0        0       29       11    17.687       73     43.6    7.710     2.60        4        4     2014  maiz_fecha1.PRM
  Tot(27)       22       12     2014     79.8    478.3   1712.0   399.74      0.0     79.8      0.0      0.0      0.0     71.1       38    248.1    248.1       92     0.000     0.000     0.000     0.000       97        0        0        0        0       24        7    18.821       79     48.7    9.170     2.88        3        4     2015  maiz_fecha1.PRM
  Tot(28)       22       12     2015     70.4    461.5   1702.9   402.52      0.0     70.4      0.0      0.0      0.0     47.2       30    281.0    281.0       95     0.000     0.000     0.000     0.000       94        0        0        0        0       12        6    21.735       93     48.5   10.540     3.22       29        3     2016  maiz_fecha1.PRM
  Tot(29)       22       12     2016    288.4    454.5   1705.6   405.21      0.0    266.8     21.6      0.0      0.0     59.5       40    300.3    300.3      100     0.000     0.000     0.000     0.000       95        0        0        0        0        9        0    23.143       98     48.4   11.206     3.13        1        4     2017  maiz_fecha1.PRM
  Tot(30)       22       12     2017     73.6    493.8   1712.8   407.21      0.0     73.6      0.0      0.0      0.0     71.9       39    259.4    259.4       90     0.000     0.000     0.000     0.000       95        0        0        0        0       26       11    19.003       78     44.4    8.441     2.60        6        4     2018  maiz_fecha1.PRM
