AquaCrop 6.0 (March 2017) - Output created on (date) : 10/16/2019   at (time) : 2:52:38 PM

    RunNr     Day1   Month1    Year1     Rain      ETo       GD     CO2      Irri   Infilt   Runoff    Drain   Upflow        E     E/Ex       Tr      TrW   Tr/Trx    SaltIn   SaltOut    SaltUp  SaltProf     Cycle   SaltStr  FertStr  WeedStr  TempStr   ExpStr   StoStr  BioMass  Brelative   HI     Yield     WPet     DayN   MonthN    YearN
                                           mm       mm    °C.day    ppm        mm       mm       mm       mm       mm       mm        %       mm       mm        %    ton/ha    ton/ha    ton/ha    ton/ha      days       %        %        %        %        %        %    ton/ha        %       %    ton/ha    kg/m3
   Tot(1)       22        3     1988     28.8    485.7   1701.4   351.57      0.0     28.8      0.0      0.0      0.0     53.5       26    228.5    228.5       89     0.000     0.000     0.000     0.000       96        0        0        0        0       28       12    17.336       67     38.4    6.659     2.37       11        7     1988  maiz_fecha2.PRM
   Tot(2)       22        3     1989     33.3    479.1   1701.0   352.12      0.0     33.3      0.0      0.0      0.0     59.2       30    226.0    226.0       90     0.000     0.000     0.000     0.000       96        0        0        0        0       28       12    17.889       69     39.4    7.054     2.48       12        7     1989  maiz_fecha2.PRM
   Tot(3)       22        3     1990     40.6    481.9   1705.5   354.39      0.0     40.5      0.1      0.0      0.0     63.9       31    228.0    228.0       89     0.000     0.000     0.000     0.000       93        0        0        0        0       28       11    17.120       69     38.5    6.583     2.27        7        7     1990  maiz_fecha2.PRM
   Tot(4)       22        3     1991     57.5    478.8   1704.4   355.61      0.0     57.4      0.1      0.0      0.0     64.2       36    256.4    256.4       91     0.000     0.000     0.000     0.000       99        0        0        0        0       23       11    19.661       78     45.3    8.907     2.79        9        7     1991  maiz_fecha2.PRM
   Tot(5)       22        3     1992     62.0    463.1   1710.1   356.45      0.0     62.0      0.0      0.0      0.0     67.3       42    259.5    259.5       91     0.000     0.000     0.000     0.000       95        0        0        0        0        7       11    19.739       82     47.3    9.337     2.86        3        7     1992  maiz_fecha2.PRM
   Tot(6)       22        3     1993    145.1    444.0   1714.6   356.10      0.0    138.3      6.8      0.6      0.0     67.8       46    288.4    288.4      100     0.000     0.000     0.000     0.000      102        0        0        0        0        2        0    24.475       99     48.1   11.761     3.30        7        7     1993  maiz_fecha2.PRM
   Tot(7)       22        3     1994     40.2    481.4   1701.6   358.83      0.0     40.2      0.0      0.0      0.0     62.2       32    229.7    229.7       89     0.000     0.000     0.000     0.000       92        0        0        0        0       26       12    17.167       68     37.4    6.422     2.22        8        7     1994  maiz_fecha2.PRM
   Tot(8)       22        3     1995     19.6    472.7   1706.0   360.82      0.0     19.6      0.0      0.0      0.0     44.6       23    225.5    225.5       90     0.000     0.000     0.000     0.000       95        0        0        0        0       30       12    17.606       68     39.5    6.946     2.58       11        7     1995  maiz_fecha2.PRM
   Tot(9)       22        3     1996     28.5    476.7   1703.3   362.61      0.0     28.5      0.0      0.0      0.0     54.5       27    225.9    225.9       90     0.000     0.000     0.000     0.000       99        0        0        0        0       28       12    17.972       68     40.4    7.264     2.60       13        7     1996  maiz_fecha2.PRM
  Tot(10)       22        3     1997     23.7    475.2   1710.4   363.73      0.0     23.7      0.0      0.0      0.0     47.5       24    233.1    233.1       90     0.000     0.000     0.000     0.000       91        0        0        0        0       16       11    17.525       74     42.5    7.447     2.67        3        7     1997  maiz_fecha2.PRM
  Tot(11)       22        3     1998    146.8    431.4   1707.2   366.70      0.0    115.2     31.6     24.1      0.0     97.0       70    263.0    263.0       93     0.000     0.000     0.000     0.000       99        0        0        0        0        7       10    22.183       92     48.2   10.692     2.97        3        7     1998  maiz_fecha2.PRM
  Tot(12)       22        3     1999     42.0    474.8   1708.3   368.38      0.0     42.0      0.0      0.0      0.0     56.1       31    245.8    245.8       90     0.000     0.000     0.000     0.000      101        0        0        0        0       15       12    19.968       75     44.4    8.863     2.96       13        7     1999  maiz_fecha2.PRM
  Tot(13)       22        3     2000     53.2    439.1   1703.1   369.55      0.0     53.2      0.0      0.0      0.0     64.5       42    255.0    255.0       92     0.000     0.000     0.000     0.000      106        0        0        0        0       11       11    22.289       86     48.3   10.767     3.37       10        7     2000  maiz_fecha2.PRM
  Tot(14)       22        3     2001     60.0    429.7   1712.4   371.14      0.0     59.2      0.8      0.6      0.0     68.4       50    259.1    259.1       92     0.000     0.000     0.000     0.000      104        0        0        0        0        8       10    22.776       89     48.2   10.988     3.36        9        7     2001  maiz_fecha2.PRM
  Tot(15)       22        3     2002     71.3    458.3   1711.6   373.28      0.0     64.0      7.3      9.8      0.0     73.2       45    243.1    243.1       90     0.000     0.000     0.000     0.000       95        0        0        0        0        8       11    19.676       78     43.4    8.535     2.72        7        7     2002  maiz_fecha2.PRM
  Tot(16)       22        3     2003     29.0    484.3   1708.5   375.80      0.0     29.0      0.0      0.0      0.0     54.3       26    222.7    222.7       89     0.000     0.000     0.000     0.000       93        0        0        0        0       30       12    16.914       67     39.5    6.676     2.42        8        7     2003  maiz_fecha2.PRM
  Tot(17)       22        3     2004     20.5    500.0   1705.0   377.52      0.0     20.5      0.0      0.0      0.0     49.0       21    212.7    212.7       88     0.000     0.000     0.000     0.000       89        0        0        0        0       33       12    15.418       60     34.4    5.300     2.04        8        7     2004  maiz_fecha2.PRM
  Tot(18)       22        3     2005     14.5    494.0   1700.6   379.80      0.0     14.5      0.0      0.0      0.0     44.4       20    212.2    212.2       89     0.000     0.000     0.000     0.000       90        0        0        0        0       34       12    15.716       62     36.4    5.723     2.24        7        7     2005  maiz_fecha2.PRM
  Tot(19)       22        3     2006     11.0    501.9   1702.2   381.90      0.0     11.0      0.0      0.0      0.0     41.2       17    200.9    200.9       87     0.000     0.000     0.000     0.000       90        0        0        0        0       36       12    13.909       54     34.4    4.782     1.98        8        7     2006  maiz_fecha2.PRM
  Tot(20)       22        3     2007     24.4    502.4   1713.1   383.79      0.0     24.4      0.0      0.0      0.0     48.8       22    219.9    219.9       88     0.000     0.000     0.000     0.000       92        0        0        0        0       30       13    16.457       63     35.4    5.819     2.18       11        7     2007  maiz_fecha2.PRM
  Tot(21)       22        3     2008     57.2    443.6   1701.5   385.60      0.0     55.8      1.4      1.9      0.0     70.3       46    245.5    245.5       91     0.000     0.000     0.000     0.000      101        0        0        0        0       11       11    20.962       80     46.4    9.723     3.09       10        7     2008  maiz_fecha2.PRM
  Tot(22)       22        3     2009     20.2    470.2   1714.3   387.43      0.0     20.2      0.0      0.0      0.0     47.6       24    219.2    219.2       89     0.000     0.000     0.000     0.000       91        0        0        0        0       26       12    16.669       67     38.5    6.410     2.41        7        7     2009  maiz_fecha2.PRM
  Tot(23)       22        3     2010     30.0    477.1   1709.2   389.90      0.0     30.0      0.0      0.0      0.0     50.0       28    236.5    236.5       89     0.000     0.000     0.000     0.000       92        0        0        0        0       14       12    18.162       72     40.4    7.341     2.58        7        7     2010  maiz_fecha2.PRM
  Tot(24)       22        3     2011     37.5    475.4   1714.0   391.65      0.0     37.5      0.0      0.0      0.0     60.0       31    228.3    228.3       90     0.000     0.000     0.000     0.000       93        0        0        0        0       27       12    17.653       69     38.4    6.786     2.37        8        7     2011  maiz_fecha2.PRM
  Tot(25)       22        3     2012     26.6    457.1   1713.5   393.85      0.0     26.6      0.0      0.0      0.0     48.6       28    236.0    236.0       90     0.000     0.000     0.000     0.000       93        0        0        0        0       19       11    18.480       75     41.5    7.662     2.71        5        7     2012  maiz_fecha2.PRM
  Tot(26)       22        3     2013     27.2    485.5   1705.9   396.52      0.0     27.2      0.0      0.0      0.0     47.6       25    234.6    234.6       89     0.000     0.000     0.000     0.000       96        0        0        0        0       29       12    18.733       71     40.4    7.577     2.72       10        7     2013  maiz_fecha2.PRM
  Tot(27)       22        3     2014     21.2    468.8   1713.6   398.65      0.0     21.2      0.0      0.0      0.0     46.1       25    236.9    236.9       90     0.000     0.000     0.000     0.000       94        0        0        0        0       17       11    19.336       79     44.4    8.583     3.05        4        7     2014  maiz_fecha2.PRM
  Tot(28)       22        3     2015     69.6    435.6   1705.9   400.83      0.0     69.1      0.5      0.5      0.0     57.1       42    273.7    273.7       95     0.000     0.000     0.000     0.000       98        0        0        0        0        8        6    23.016       95     48.2   11.100     3.36        2        7     2015  maiz_fecha2.PRM
  Tot(29)       22        3     2016     27.0    480.2   1707.1   404.21      0.0     27.0      0.0      0.0      0.0     51.9       26    221.1    221.1       89     0.000     0.000     0.000     0.000       87        0        0        0        0       28       12    16.201       66     36.4    5.903     2.17        3        7     2016  maiz_fecha2.PRM
  Tot(30)       22        3     2017     97.3    421.6   1714.2   406.21      0.0     86.5     10.8     16.5      0.0     76.6       60    261.4    261.4       93     0.000     0.000     0.000     0.000      101        0        0        0        0        6        9    23.158       92     48.2   11.155     3.30        6        7     2017  maiz_fecha2.PRM
  Tot(31)       22        3     2018     59.2    475.2   1715.1   408.21      0.0     58.9      0.3      0.0      0.0     66.5       40    255.6    255.6       90     0.000     0.000     0.000     0.000       98        0        0        0        0       11       11    20.326       79     45.3    9.198     2.87        9        7     2018  maiz_fecha2.PRM
