AquaCrop 6.0 (March 2017) - Output created on (date) : 10/16/2019   at (time) : 2:52:14 PM

   Run:   1
   Day Month  Year   DAP Stage   WC(2.30)   Rain     Irri   Surf   Infilt   RO    Drain       CR    Zgwt       Ex       E     E/Ex     Trx       Tr  Tr/Trx    ETx      ET  ET/ETx      GD       Z     StExp  StSto  StSen StSalt StWeed   CC      CCw     StTr  Kc(Tr)     Trx       Tr      TrW  Tr/Trx   WP    Biomass     HI  YieldPart  Brelative    WPet  WC(2.30) Wr(2.30)     Z       Wr    Wr(SAT)    Wr(FC)   Wr(exp)   Wr(sto)   Wr(sen)   Wr(PWP)    SaltIn    SaltOut   SaltUp   Salt(2.30)  SaltZ     Z       ECe    ECsw   StSalt  Zgwt    ECgw       WC01       WC 2       WC 3       WC 4       WC 5       WC 6       WC 7       WC 8       WC 9       WC10       WC11       WC12      ECe01      ECe 2      ECe 3      ECe 4      ECe 5      ECe 6      ECe 7      ECe 8      ECe 9      ECe10      ECe11      ECe12     Rain       ETo      Tmin      Tavg      Tmax      CO2
                                      mm      mm       mm     mm     mm     mm       mm       mm      m        mm       mm     %        mm       mm    %        mm      mm       %    °C-day     m       %      %      %      %      %      %       %       %       -        mm       mm       mm    %     g/m2    ton/ha      %    ton/ha       %       kg/m3      mm       mm       m       mm        mm        mm        mm        mm        mm         mm    ton/ha    ton/ha    ton/ha    ton/ha    ton/ha     m      dS/m    dS/m      %     m      dS/m       0.05       0.17       0.32       0.47       0.63       0.80       1.00       1.20       1.43       1.68       1.93       2.17       0.05       0.17       0.32       0.47       0.63       0.80       1.00       1.20       1.43       1.68       1.93       2.17       mm        mm       °C        °C        °C       ppm
    22    12  1988     1     1     721.5     0.1      0.0    0.0    0.1    0.0      0.0      0.0   -9.90      5.1      4.1     80      0.0      0.0   100      5.1     4.1      80     14.8    0.30     -9     -9     -9      0     -9     0.0     0.0      0    -9.00      0.0      0.0      0.0   100     0.0     0.000    -9.9    0.000      -9        0.00     721.5    721.5    0.30    93.2     125.4      97.2      91.1      66.7      67.1      53.6    0.000     0.000     0.000     0.000     0.000    0.30     0.00    0.00      0   -9.90   -9.00       29.9       34.0       33.0       33.0       33.0       33.0       33.0       33.0       33.0       33.0       33.0       33.0        0.0        0.0        0.0        0.0        0.0        0.0        0.0        0.0        0.0        0.0        0.0        0.0      0.1       4.6      17.5      22.8      28.0    351.85
    23    12  1988     2     1     717.8     0.1      0.0    0.0    0.1    0.0      0.0      0.0   -9.90      4.8      3.8     79      0.0      0.0   100      4.8     3.8      79     14.7    0.30     -9     -9     -9      0     -9     0.0     0.0      0    -9.00      0.0      0.0      0.0   100     0.0     0.000    -9.9    0.000      -9        0.00     717.8    717.8    0.30    89.5     125.4      97.2      91.1      66.5      67.1      53.6    0.000     0.000     0.000     0.000     0.000    0.30     0.00    0.00      0   -9.90   -9.00       26.0       34.0       33.0       33.0       33.0       33.0       33.0       33.0       33.0       33.0       33.0       33.0        0.0        0.0        0.0        0.0        0.0        0.0        0.0        0.0        0.0        0.0        0.0        0.0      0.1       4.4      17.6      22.7      27.8    351.85
    24    12  1988     3     1     719.3     6.8      0.0    0.0    6.7    0.1      0.0      0.0   -9.90      5.2      5.2    100      0.0      0.0   100      5.2     5.2     100     14.9    0.30     -9     -9     -9      0     -9     0.0     0.0      0    -9.00      0.0      0.0      0.0   100     0.0     0.000    -9.9    0.000      -9        0.00     719.3    719.3    0.30    91.0     125.4      97.2      91.1      66.8      67.1      53.6    0.000     0.000     0.000     0.000     0.000    0.30     0.00    0.00      0   -9.90   -9.00       27.6       34.0       33.0       33.0       33.0       33.0       33.0       33.0       33.0       33.0       33.0       33.0        0.0        0.0        0.0        0.0        0.0        0.0        0.0        0.0        0.0        0.0        0.0        0.0      6.8       4.7      17.5      22.9      28.3    351.85
    25    12  1988     4     1     716.2     1.0      0.0    0.0    1.0    0.0      0.0      0.0   -9.90      5.0      4.2     84      0.0      0.0   100      5.0     4.2      84     14.7    0.30     -9     -9     -9      0     -9     0.0     0.0      0    -9.00      0.0      0.0      0.0   100     0.0     0.000    -9.9    0.000      -9        0.00     716.2    716.2    0.30    87.9     125.4      97.2      91.1      66.6      67.1      53.6    0.000     0.000     0.000     0.000     0.000    0.30     0.00    0.00      0   -9.90   -9.00       24.4       34.0       33.0       33.0       33.0       33.0       33.0       33.0       33.0       33.0       33.0       33.0        0.0        0.0        0.0        0.0        0.0        0.0        0.0        0.0        0.0        0.0        0.0        0.0      1.0       4.5      17.5      22.7      27.9    351.85
    26    12  1988     5     1     712.8     0.4      0.0    0.0    0.4    0.0      0.0      0.0   -9.90      4.7      3.7     79      0.0      0.0   100      4.7     3.7      79     14.4    0.33     -9     -9     -9      0     -9     0.0     0.0      0    -9.00      0.0      0.0      0.0   100     0.0     0.000    -9.9    0.000      -9        0.00     712.8    712.8    0.33    94.1     137.6     106.7     100.1      73.1      73.9      59.1    0.000     0.000     0.000     0.000     0.000    0.33     0.00    0.00      0   -9.90   -9.00       20.9       34.0       33.0       33.0       33.0       33.0       33.0       33.0       33.0       33.0       33.0       33.0        0.0        0.0        0.0        0.0        0.0        0.0        0.0        0.0        0.0        0.0        0.0        0.0      0.4       4.3      17.5      22.4      27.4    351.85
    27    12  1988     6     1     710.3     0.0      0.0    0.0    0.0    0.0      0.0      0.0   -9.90      5.0      2.5     49      0.0      0.0   100      5.1     2.5      50     14.9    0.37     -9      0      0      0      0     0.5     0.5      0     0.01      0.0      0.0      0.0   100    33.2     0.003    -9.9    0.000     100        0.00     710.3    710.3    0.37   103.9     153.3     119.1     110.9      82.1      82.1      66.2    0.000     0.000     0.000     0.000     0.000    0.37     0.00    0.00      0   -9.90   -9.00       18.3       34.0       33.0       33.0       33.0       33.0       33.0       33.0       33.0       33.0       33.0       33.0        0.0        0.0        0.0        0.0        0.0        0.0        0.0        0.0        0.0        0.0        0.0        0.0      0.0       4.6      17.3      22.9      28.4    351.85
    28    12  1988     7     2     708.5     0.0      0.0    0.0    0.0    0.0      0.0      0.0   -9.90      5.0      1.8     35      0.1      0.1   100      5.1     1.8      36     14.4    0.41     -9      0      0      0      0     0.6     0.6      0     0.01      0.1      0.1      0.1   100    33.2     0.007    -9.9    0.000     100        0.00     708.5    708.5    0.41   113.3     167.5     130.2     121.3      90.0      90.0      72.6    0.000     0.000     0.000     0.000     0.000    0.41     0.00    0.00      0   -9.90   -9.00       16.5       34.0       33.0       33.0       33.0       33.0       33.0       33.0       33.0       33.0       33.0       33.0        0.0        0.0        0.0        0.0        0.0        0.0        0.0        0.0        0.0        0.0        0.0        0.0      0.0       4.6      17.4      22.4      27.5    351.85
    29    12  1988     8     2     707.1     0.0      0.0    0.0    0.0    0.0      0.0      0.0   -9.90      5.0      1.4     27      0.1      0.1   100      5.1     1.4      28     14.4    0.44      5      0      0      0      0     0.8     0.8      0     0.01      0.1      0.1      0.1   100    33.2     0.012    -9.9    0.000     100        0.00     707.1    707.1    0.44   122.4     181.0     140.8     131.2      97.4      97.4      78.7    0.000     0.000     0.000     0.000     0.000    0.44     0.00    0.00      0   -9.90   -9.00       15.1       33.9       33.0       33.0       33.0       33.0       33.0       33.0       33.0       33.0       33.0       33.0        0.0        0.0        0.0        0.0        0.0        0.0        0.0        0.0        0.0        0.0        0.0        0.0      0.0       4.6      17.5      22.4      27.4    351.85
    30    12  1988     9     2     705.8     0.1      0.0    0.0    0.1    0.0      0.0      0.0   -9.90      5.4      1.4     25      0.1      0.1   100      5.5     1.4      26     15.3    0.47      6      0      0      0      0     0.9     0.9      0     0.02      0.1      0.1      0.1   100    33.2     0.017    -9.9    0.000      99        0.00     705.8    705.8    0.47   131.8     194.6     151.5     142.2     105.6     105.6      84.9    0.000     0.000     0.000     0.000     0.000    0.47     0.00    0.00      0   -9.90   -9.00       13.8       33.9       33.0       33.0       33.0       33.0       33.0       33.0       33.0       33.0       33.0       33.0        0.0        0.0        0.0        0.0        0.0        0.0        0.0        0.0        0.0        0.0        0.0        0.0      0.1       5.0      17.6      23.3      29.0    351.85
    31    12  1988    10     2     704.8     0.4      0.0    0.0    0.4    0.0      0.0      0.0   -9.90      5.0      1.3     26      0.1      0.1   100      5.1     1.4      27     14.5    0.50      5      0      0      0      0     1.1     1.1      0     0.02      0.1      0.1      0.1   100    33.2     0.024    -9.9    0.000      99        0.00     704.8    704.8    0.50   140.7     207.1     161.4     150.4     111.9     111.9      90.6    0.000     0.000     0.000     0.000     0.000    0.50     0.00    0.00      0   -9.90   -9.00       12.8       33.8       33.0       33.0       33.0       33.0       33.0       33.0       33.0       33.0       33.0       33.0        0.0        0.0        0.0        0.0        0.0        0.0        0.0        0.0        0.0        0.0        0.0        0.0      0.4       4.6      17.4      22.5      27.7    351.85
     1     1  1989    11     2     704.1     1.9      0.0    0.0    1.9    0.0      0.0      0.0   -9.90      4.8      2.4     50      0.1      0.1   100      4.9     2.5      51     14.8    0.54      3      0      0      0      0     1.3     1.3      0     0.02      0.1      0.1      0.1   100    33.2     0.032    -9.9    0.000      98        0.00     704.1    704.1    0.54   149.7     219.4     171.1     159.2     118.5     118.5      96.1    0.000     0.000     0.000     0.000     0.000    0.54     0.00    0.00      0   -9.90   -9.00       12.3       33.7       33.0       33.0       33.0       33.0       33.0       33.0       33.0       33.0       33.0       33.0        0.0        0.0        0.0        0.0        0.0        0.0        0.0        0.0        0.0        0.0        0.0        0.0      1.9       4.5      17.4      22.8      28.2    351.85
     2     1  1989    12     2     703.4     0.5      0.0    0.0    0.5    0.0      0.0      0.0   -9.90      4.3      1.1     26      0.1      0.1   100      4.4     1.2      27     14.6    0.56      3      0      0      0      0     1.6     1.6      0     0.03      0.1      0.1      0.1   100    33.2     0.041    -9.9    0.000      98        0.00     703.4    703.4    0.56   158.3     231.3     180.4     166.4     124.1     124.1     101.5    0.000     0.000     0.000     0.000     0.000    0.56     0.00    0.00      0   -9.90   -9.00       11.7       33.6       33.0       33.0       33.0       33.0       33.0       33.0       33.0       33.0       33.0       33.0        0.0        0.0        0.0        0.0        0.0        0.0        0.0        0.0        0.0        0.0        0.0        0.0      0.5       4.0      17.6      22.6      27.7    351.85
     3     1  1989    13     2     703.0     1.6      0.0    0.0    1.6    0.0      0.0      0.0   -9.90      3.7      1.9     51      0.1      0.1   100      3.8     2.0      53     13.9    0.59      2      0      0      0      0     1.9     1.9      0     0.03      0.1      0.1      0.1   100    33.2     0.052    -9.9    0.000      97        0.00     703.0    703.0    0.59   166.5     242.3     189.0     172.8     129.2     129.2     106.5    0.000     0.000     0.000     0.000     0.000    0.59     0.00    0.00      0   -9.90   -9.00       11.4       33.6       33.0       33.0       33.0       33.0       33.0       33.0       33.0       33.0       33.0       33.0        0.0        0.0        0.0        0.0        0.0        0.0        0.0        0.0        0.0        0.0        0.0        0.0      1.6       3.5      17.8      21.9      26.0    351.85
     4     1  1989    14     2     702.7     3.5      0.0    0.0    3.5    0.0      0.0      0.0   -9.90      4.7      3.7     79      0.2      0.2   100      4.8     3.8      79     14.6    0.62      2      0      0      0      0     2.2     2.2      0     0.04      0.2      0.2      0.2   100    33.2     0.065    -9.9    0.000      97        0.00     702.7    702.7    0.62   175.1     253.6     197.9     183.8     137.1     137.1     111.6    0.000     0.000     0.000     0.000     0.000    0.62     0.00    0.00      0   -9.90   -9.00       11.2       33.4       33.0       33.0       33.0       33.0       33.0       33.0       33.0       33.0       33.0       33.0        0.0        0.0        0.0        0.0        0.0        0.0        0.0        0.0        0.0        0.0        0.0        0.0      3.5       4.4      17.6      22.6      27.6    351.85
     5     1  1989    15     2     702.0     1.4      0.0    0.0    1.4    0.0      0.0      0.0   -9.90      4.9      1.9     38      0.2      0.2   100      5.2     2.1      40     15.1    0.65      3      0      0      0      0     2.7     2.7      0     0.05      0.2      0.2      0.2   100    33.2     0.081    -9.9    0.000      97        0.00     702.0    702.0    0.65   183.4     265.0     206.9     193.2     144.1     144.1     116.8    0.000     0.000     0.000     0.000     0.000    0.65     0.00    0.00      0   -9.90   -9.00       10.7       33.3       33.0       33.0       33.0       33.0       33.0       33.0       33.0       33.0       33.0       33.0        0.0        0.0        0.0        0.0        0.0        0.0        0.0        0.0        0.0        0.0        0.0        0.0      1.4       4.7      17.8      23.1      28.4    351.85
     6     1  1989    16     2     701.5     1.6      0.0    0.0    1.6    0.0      0.0      0.0   -9.90      4.2      1.9     46      0.2      0.2   100      4.4     2.1      49     15.0    0.68      2      0      0      0      0     3.2     3.2      0     0.06      0.2      0.2      0.2   100    33.2     0.100    -9.9    0.000      96        0.00     701.5    701.5    0.68   191.6     276.2     215.6     198.9     148.7     148.7     121.8    0.000     0.000     0.000     0.000     0.000    0.68     0.00    0.00      0   -9.90   -9.00       10.4       33.1       33.0       33.0       33.0       33.0       33.0       33.0       33.0       33.0       33.0       33.0        0.0        0.0        0.0        0.0        0.0        0.0        0.0        0.0        0.0        0.0        0.0        0.0      1.6       4.0      18.1      23.0      27.9    351.85
     7     1  1989    17     2     700.8     0.6      0.0    0.0    0.6    0.0      0.0      0.0   -9.90      4.4      1.0     23      0.3      0.3   100      4.7     1.3      28     15.3    0.70      3      0      0      0      0     3.9     3.9      0     0.07      0.3      0.3      0.3   100    33.2     0.122    -9.9    0.000      96        0.00     700.8    700.8    0.70   199.7     287.3     224.4     208.2     155.5     155.5     126.8    0.000     0.000     0.000     0.000     0.000    0.70     0.00    0.00      0   -9.90   -9.00       10.0       32.9       33.0       33.0       33.0       33.0       33.0       33.0       33.0       33.0       33.0       33.0        0.0        0.0        0.0        0.0        0.0        0.0        0.0        0.0        0.0        0.0        0.0        0.0      0.6       4.3      18.2      23.3      28.4    351.85
     8     1  1989    18     2     699.9     0.2      0.0    0.0    0.2    0.0      0.0      0.0   -9.90      5.0      0.7     14      0.4      0.4   100      5.4     1.1      20     15.3    0.73      4      0      0      0      0     4.6     4.6      0     0.08      0.4      0.4      0.4   100    33.2     0.149    -9.9    0.000      95        0.00     699.9    699.9    0.73   207.4     298.3     233.0     218.5     162.9     162.9     131.8    0.000     0.000     0.000     0.000     0.000    0.73     0.00    0.00      0   -9.90   -9.00        9.5       32.6       33.0       33.0       33.0       33.0       33.0       33.0       33.0       33.0       33.0       33.0        0.0        0.0        0.0        0.0        0.0        0.0        0.0        0.0        0.0        0.0        0.0        0.0      0.2       4.9      18.3      23.3      28.3    351.85
     9     1  1989    19     2     698.9     0.2      0.0    0.0    0.2    0.0      0.0      0.0   -9.90      5.2      0.6     12      0.5      0.5   100      5.7     1.2      20     15.5    0.76      4      0      0      0      0     5.6     5.6      0     0.10      0.5      0.5      0.5   100    33.2     0.182    -9.9    0.000      95        0.00     698.9    698.9    0.76   215.1     309.2     241.6     227.7     169.8     169.8     136.8    0.000     0.000     0.000     0.000     0.000    0.76     0.00    0.00      0   -9.90   -9.00        9.0       32.3       33.0       33.0       33.0       33.0       33.0       33.0       33.0       33.0       33.0       33.0        0.0        0.0        0.0        0.0        0.0        0.0        0.0        0.0        0.0        0.0        0.0        0.0      0.2       5.2      17.4      23.5      29.6    351.85
    10     1  1989    20     2     698.0     0.8      0.0    0.0    0.8    0.0      0.0      0.0   -9.90      5.1      1.1     23      0.6      0.6   100      5.7     1.8      31     15.6    0.79      4      0      0      0      0     6.7     6.7      0     0.12      0.6      0.6      0.6   100    33.2     0.220    -9.9    0.000      94        0.00     698.0    698.0    0.79   222.6     320.1     250.1     235.7     175.8     175.8     141.7    0.000     0.000     0.000     0.000     0.000    0.79     0.00    0.00      0   -9.90   -9.00        9.0       31.7       33.0       33.0       33.0       33.0       33.0       33.0       33.0       33.0       33.0       33.0        0.0        0.0        0.0        0.0        0.0        0.0        0.0        0.0        0.0        0.0        0.0        0.0      0.8       5.2      17.1      23.6      30.1    351.85
    11     1  1989    21     2     696.9     0.9      0.0    0.0    0.9    0.0      0.0      0.0   -9.90      5.0      1.2     24      0.7      0.7   100      5.7     1.9      34     15.4    0.81      4      0      0      0      0     8.1     8.1      0     0.14      0.7      0.7      0.7   100    33.2     0.267    -9.9    0.000      94        0.00     696.9    696.9    0.81   229.9     330.6     258.4     243.6     181.7     181.7     146.4    0.000     0.000     0.000     0.000     0.000    0.81     0.00    0.00      0   -9.90   -9.00        9.0       30.9       33.0       33.0       33.0       33.0       33.0       33.0       33.0       33.0       33.0       33.0        0.0        0.0        0.0        0.0        0.0        0.0        0.0        0.0        0.0        0.0        0.0        0.0      0.9       5.2      17.2      23.4      29.6    351.85
    12     1  1989    22     2     695.9     0.3      0.0    0.0    0.3    0.0      0.0      0.0   -9.90      4.2      0.6     14      0.7      0.7   100      4.9     1.3      27     14.6    0.84      3      0      0      0      0     9.7     9.7      0     0.16      0.7      0.7      0.7   100    33.2     0.322    -9.9    0.000      93        0.00     695.9    695.9    0.84   236.6     340.5     266.2     247.9     185.3     185.3     150.9    0.000     0.000     0.000     0.000     0.000    0.84     0.00    0.00      0   -9.90   -9.00        9.0       30.2       33.0       33.0       33.0       33.0       33.0       33.0       33.0       33.0       33.0       33.0        0.0        0.0        0.0        0.0        0.0        0.0        0.0        0.0        0.0        0.0        0.0        0.0      0.3       4.5      18.0      22.6      27.2    351.85
    13     1  1989    23     2     694.6     0.2      0.0    0.0    0.2    0.0      0.0      0.0   -9.90      4.5      0.5     11      1.0      1.0   100      5.5     1.5      27     15.3    0.86      4      0      0      0      0    11.6    11.6      0     0.20      1.0      1.0      1.0   100    33.2     0.387    -9.9    0.000      93        0.00     694.6    694.6    0.86   243.4     350.7     274.2     257.6     192.3     192.3     155.5    0.000     0.000     0.000     0.000     0.000    0.86     0.00    0.00      0   -9.90   -9.00        9.0       29.3       33.0       33.0       33.0       33.0       33.0       33.0       33.0       33.0       33.0       33.0        0.0        0.0        0.0        0.0        0.0        0.0        0.0        0.0        0.0        0.0        0.0        0.0      0.2       5.0      17.6      23.3      28.9    351.85
    14     1  1989    24     2     693.2     0.0      0.0    0.0    0.0    0.0      0.0      0.0   -9.90      4.1      0.3      7      1.1      1.1   100      5.2     1.4      27     14.9    0.89      4      0      0      0      0    13.9    13.9      0     0.23      1.1      1.1      1.1   100    33.2     0.463    -9.9    0.000      92        0.00     693.2    693.2    0.89   249.8     360.6     282.0     264.0     197.3     197.3     160.0    0.000     0.000     0.000     0.000     0.000    0.89     0.00    0.00      0   -9.90   -9.00        9.0       28.3       33.0       33.0       33.0       33.0       33.0       33.0       33.0       33.0       33.0       33.0        0.0        0.0        0.0        0.0        0.0        0.0        0.0        0.0        0.0        0.0        0.0        0.0      0.0       4.8      18.2      22.9      27.7    351.85
    15     1  1989    25     2     691.6     0.4      0.0    0.0    0.4    0.0      0.0      0.0   -9.90      4.1      0.6     16      1.4      1.4   100      5.5     2.0      37     16.0    0.91      5      0      0      0      0    16.8    16.8      0     0.27      1.4      1.4      1.4   100    33.2     0.555    -9.9    0.000      92        0.00     691.6    691.6    0.91   256.3     371.1     290.2     273.1     203.9     203.9     164.7    0.000     0.000     0.000     0.000     0.000    0.91     0.00    0.00      0   -9.90   -9.00        9.0       27.2       33.0       33.0       33.0       33.0       33.0       33.0       33.0       33.0       33.0       33.0        0.0        0.0        0.0        0.0        0.0        0.0        0.0        0.0        0.0        0.0        0.0        0.0      0.4       5.1      18.0      24.3      30.6    351.85
    16     1  1989    26     2     689.9     0.4      0.0    0.0    0.4    0.0      0.0      0.0   -9.90      3.6      0.6     17      1.5      1.5   100      5.1     2.1      42     15.8    0.94      4      0      0      0      0    20.2    20.2      0     0.33      1.5      1.5      1.5   100    33.2     0.663    -9.9    0.000      92        0.00     689.9    689.9    0.94   262.6     381.3     298.2     278.7     208.4     208.4     169.4    0.000     0.000     0.000     0.000     0.000    0.94     0.00    0.00      0   -9.90   -9.00        9.0       26.0       33.0       33.0       33.0       33.0       33.0       33.0       33.0       33.0       33.0       33.0        0.0        0.0        0.0        0.0        0.0        0.0        0.0        0.0        0.0        0.0        0.0        0.0      0.4       4.7      17.9      23.8      29.6    351.85
    17     1  1989    27     2     687.8     0.3      0.0    0.0    0.3    0.0      0.0      0.0   -9.90      3.4      0.5     14      1.9      1.9   100      5.3     2.4      45     16.1    0.97      5      0      0      0      0    24.5    24.5      0     0.38      1.9      1.9      1.9   100    33.2     0.790    -9.9    0.000      91        0.00     687.8    687.8    0.97   268.6     391.6     306.3     287.3     214.7     214.7     174.0    0.000     0.000     0.000     0.000     0.000    0.97     0.00    0.00      0   -9.90   -9.00        9.0       24.5       33.0       33.0       33.0       33.0       33.0       33.0       33.0       33.0       33.0       33.0        0.0        0.0        0.0        0.0        0.0        0.0        0.0        0.0        0.0        0.0        0.0        0.0      0.3       4.9      18.1      24.6      31.1    351.85
    18     1  1989    28     2     685.2     1.5      0.0    0.0    1.5    0.0      0.0      0.0   -9.90      3.5      1.6     46      2.5      2.5   100      5.9     4.1      69     16.1    0.99      6      0      0      0      0    29.6    29.6      0     0.45      2.5      2.5      2.5   100    33.2     0.940    -9.9    0.000      91        0.00     685.2    685.2    0.99   274.0     401.7     314.3     297.8     222.2     222.2     178.6    0.000     0.000     0.000     0.000     0.000    0.99     0.00    0.00      0   -9.90   -9.00        9.0       22.7       33.0       33.0       33.0       33.0       33.0       33.0       33.0       33.0       33.0       33.0        0.0        0.0        0.0        0.0        0.0        0.0        0.0        0.0        0.0        0.0        0.0        0.0      1.5       5.5      18.1      24.6      31.2    351.85
    19     1  1989    29     2     682.5     0.4      0.0    0.0    0.4    0.0      0.0      0.0   -9.90      2.7      0.5     19      2.6      2.6   100      5.4     3.1      58     16.1    1.02      6      0      0      0      0    35.7    35.7      0     0.53      2.6      2.6      2.6   100    33.2     1.114    -9.9    0.000      90        0.00     682.5    682.5    1.02   279.3     411.9     322.3     302.8     226.3     226.3     183.2    0.000     0.000     0.000     0.000     0.000    1.02     0.00    0.00      0   -9.90   -9.00        9.0       20.8       33.0       33.0       33.0       33.0       33.0       33.0       33.0       33.0       33.0       33.0        0.0        0.0        0.0        0.0        0.0        0.0        0.0        0.0        0.0        0.0        0.0        0.0      0.4       5.0      18.4      24.1      29.9    351.85
    20     1  1989    30     2     679.3     1.1      0.0    0.0    1.1    0.0      0.0      0.0   -9.90      2.4      1.1     49      3.1      3.1   100      5.5     4.3      78     16.1    1.04      7      0      0      0      0    43.1    43.1      0     0.61      3.1      3.1      3.1   100    33.2     1.316    -9.9    0.000      90        0.00     679.3    679.3    1.04   284.0     421.9     330.1     310.7     232.2     232.2     187.7    0.000     0.000     0.000     0.000     0.000    1.04     0.00    0.00      0   -9.90   -9.00        9.0       18.6       33.0       33.0       33.0       33.0       33.0       33.0       33.0       33.0       33.0       33.0        0.0        0.0        0.0        0.0        0.0        0.0        0.0        0.0        0.0        0.0        0.0        0.0      1.1       5.1      18.3      24.6      31.0    351.85
    21     1  1989    31     2     675.8     0.5      0.0    0.0    0.5    0.0      0.0      0.0   -9.90      1.9      0.5     29      3.5      3.5   100      5.3     4.0      75     15.6    1.07      8      0      0      0      0    51.3    51.3      0     0.69      3.5      3.5      3.5   100    33.2     1.547    -9.9    0.000      90        0.00     675.8    675.8    1.07   288.1     431.6     337.7     317.3     237.2     237.2     192.1    0.000     0.000     0.000     0.000     0.000    1.07     0.00    0.00      0   -9.90   -9.00        9.0       18.6       30.6       33.0       33.0       33.0       33.0       33.0       33.0       33.0       33.0       33.0        0.0        0.0        0.0        0.0        0.0        0.0        0.0        0.0        0.0        0.0        0.0        0.0      0.5       5.0      18.2      23.6      29.1    351.85
    22     1  1989    32     2     672.1     1.2      0.0    0.0    1.2    0.0      0.0      0.0   -9.90      1.5      1.2     82      3.7      3.7   100      5.2     5.0      95     16.4    1.09      9      0      0      0      0    59.0    59.0      0     0.76      3.7      3.7      3.7   100    33.2     1.801    -9.9    0.000      90        0.00     672.1    672.1    1.09   292.2     441.6     345.6     324.2     242.5     242.5     196.7    0.000     0.000     0.000     0.000     0.000    1.09     0.00    0.00      0   -9.90   -9.00        9.0       18.6       28.0       33.0       33.0       33.0       33.0       33.0       33.0       33.0       33.0       33.0        0.0        0.0        0.0        0.0        0.0        0.0        0.0        0.0        0.0        0.0        0.0        0.0      1.2       4.9      18.9      24.5      30.2    351.85
    23     1  1989    33     2     668.2     0.6      0.0    0.0    0.6    0.0      0.0      0.0   -9.90      1.1      0.6     54      3.8      3.8   100      5.0     4.5      89     16.4    1.12     10      0      0      0      0    65.2    65.2      0     0.82      3.8      3.8      3.8   100    33.2     2.072    -9.9    0.000      91        0.00     668.2    668.2    1.12   296.2     451.6     353.4     330.4     247.3     247.3     201.1    0.000     0.000     0.000     0.000     0.000    1.12     0.00    0.00      0   -9.90   -9.00        9.0       18.6       25.3       33.0       33.0       33.0       33.0       33.0       33.0       33.0       33.0       33.0        0.0        0.0        0.0        0.0        0.0        0.0        0.0        0.0        0.0        0.0        0.0        0.0      0.6       4.7      18.8      24.4      30.0    351.85
    24     1  1989    34     2     664.5     0.3      0.0    0.0    0.3    0.0      0.0      0.0   -9.90      0.9      0.3     37      3.7      3.7   100      4.6     4.0      88     16.4    1.14     10      0      0      0      0    70.3    70.3      0     0.86      3.7      3.7      3.7   100    33.2     2.358    -9.9    0.000      91        0.00     664.5    664.5    1.14   300.2     461.4     361.2     335.3     251.3     251.3     205.6    0.000     0.000     0.000     0.000     0.000    1.14     0.00    0.00      0   -9.90   -9.00        9.0       18.6       22.7       33.0       33.0       33.0       33.0       33.0       33.0       33.0       33.0       33.0        0.0        0.0        0.0        0.0        0.0        0.0        0.0        0.0        0.0        0.0        0.0        0.0      0.3       4.3      18.7      24.7      30.7    351.85
    25     1  1989    35     2     660.6     0.3      0.0    0.0    0.3    0.0      0.0      0.0   -9.90      0.7      0.3     44      3.8      3.8   100      4.5     4.2      91     16.4    1.16     12      0      0      0      0    74.5    74.5      0     0.89      3.8      3.8      3.8   100    33.2     2.655    -9.9    0.000      92        0.00     660.6    660.6    1.16   304.0     471.2     368.8     342.4     256.7     256.7     210.0    0.000     0.000     0.000     0.000     0.000    1.16     0.00    0.00      0   -9.90   -9.00        9.0       18.6       20.0       33.0       33.0       33.0       33.0       33.0       33.0       33.0       33.0       33.0        0.0        0.0        0.0        0.0        0.0        0.0        0.0        0.0        0.0        0.0        0.0        0.0      0.3       4.3      18.8      24.5      30.2    351.85
    26     1  1989    36     2     658.4     2.2      0.0    0.0    2.2    0.0      0.0      0.0   -9.90      0.6      0.6    100      3.9      3.9   100      4.4     4.4     100     16.0    1.19     12      0      0      0      0    78.0    78.0      0     0.92      3.9      3.9      3.9   100    33.2     2.960    -9.9    0.000      92        0.00     658.4    658.4    1.19   309.2     480.6     376.3     348.7     261.5     261.5     214.3    0.000     0.000     0.000     0.000     0.000    1.19     0.00    0.00      0   -9.90   -9.00       10.7       18.6       17.3       33.0       33.0       33.0       33.0       33.0       33.0       33.0       33.0       33.0        0.0        0.0        0.0        0.0        0.0        0.0        0.0        0.0        0.0        0.0        0.0        0.0      2.2       4.2      18.9      24.0      29.1    351.85
    27     1  1989    37     2     654.6     1.0      0.0    0.0    1.0    0.0      0.0      0.0   -9.90      0.5      0.5    100      4.3      4.3   100      4.9     4.9     100     16.2    1.21     14      0      0      0      0    80.8    80.8      0     0.94      4.3      4.3      4.3   100    33.2     3.273    -9.9    0.000      93        0.00     654.6    654.6    1.21   312.8     490.2     383.8     358.1     268.3     268.3     218.6    0.000     0.000     0.000     0.000     0.000    1.21     0.00    0.00      0   -9.90   -9.00       11.2       18.6       17.3       30.0       33.0       33.0       33.0       33.0       33.0       33.0       33.0       33.0        0.0        0.0        0.0        0.0        0.0        0.0        0.0        0.0        0.0        0.0        0.0        0.0      1.0       4.6      19.2      24.2      29.2    351.85
    28     1  1989    38     2     649.9     0.5      0.0    0.0    0.5    0.0      0.0      0.0   -9.90      0.5      0.5    100      4.7      4.7   100      5.2     5.2     100     16.3    1.24     17      0      0      0      0    83.1    83.1      0     0.96      4.7      4.7      4.7   100    33.2     3.590    -9.9    0.000      93        0.00     649.9    649.9    1.24   315.6     499.6     391.2     367.0     274.7     274.7     222.9    0.000     0.000     0.000     0.000     0.000    1.24     0.00    0.00      0   -9.90   -9.00       11.2       18.6       17.3       26.7       33.0       33.0       33.0       33.0       33.0       33.0       33.0       33.0        0.0        0.0        0.0        0.0        0.0        0.0        0.0        0.0        0.0        0.0        0.0        0.0      0.5       4.9      18.5      25.1      31.6    351.85
    29     1  1989    39     2     645.7     0.8      0.0    0.0    0.8    0.0      0.0      0.0   -9.90      0.4      0.4    100      4.6      4.6   100      5.0     5.0     100     16.1    1.26     19      0      0      0      0    85.0    85.0      0     0.97      4.6      4.6      4.6   100    33.2     3.913    -9.9    0.000      93        0.00     645.7    645.7    1.26   318.8     509.0     398.5     372.6     279.1     279.1     227.1    0.000     0.000     0.000     0.000     0.000    1.26     0.00    0.00      0   -9.90   -9.00       11.6       18.6       17.3       23.5       33.0       33.0       33.0       33.0       33.0       33.0       33.0       33.0        0.0        0.0        0.0        0.0        0.0        0.0        0.0        0.0        0.0        0.0        0.0        0.0      0.8       4.7      18.2      24.5      30.8    351.85
    30     1  1989    40     2     642.2     1.2      0.0    0.0    1.2    0.0      0.0      0.0   -9.90      0.3      0.3    100      4.4      4.4   100      4.7     4.7     100     16.4    1.28     20      0      0      0      0    86.7    86.7      0     0.98      4.4      4.4      4.4   100    33.2     4.239    -9.9    0.000      94        0.00     642.2    642.2    1.28   322.7     518.4     406.0     378.2     283.5     283.5     231.4    0.000     0.000     0.000     0.000     0.000    1.28     0.00    0.00      0   -9.90   -9.00       12.5       18.6       17.3       20.4       33.0       33.0       33.0       33.0       33.0       33.0       33.0       33.0        0.0        0.0        0.0        0.0        0.0        0.0        0.0        0.0        0.0        0.0        0.0        0.0      1.2       4.5      19.2      24.4      29.7    351.85
    31     1  1989    41     2     638.5     1.6      0.0    0.0    1.6    0.0      0.0      0.0   -9.90      0.3      0.3    100      5.0      5.0   100      5.3     5.3     100     16.1    1.31     23      0      0      0      0    88.0    88.0      0     0.99      5.0      5.0      5.0   100    33.2     4.568    -9.9    0.000      94        0.00     638.5    638.5    1.31   326.3     527.6     413.2     388.3     290.6     290.6     235.6    0.000     0.000     0.000     0.000     0.000    1.31     0.00    0.00      0   -9.90   -9.00       13.9       18.6       17.3       17.3       32.6       33.0       33.0       33.0       33.0       33.0       33.0       33.0        0.0        0.0        0.0        0.0        0.0        0.0        0.0        0.0        0.0        0.0        0.0        0.0      1.6       5.0      19.1      24.1      29.1    351.85
     1     2  1989    42     2     639.2     4.8      0.0    0.0    4.8    0.0      0.0      0.0   -9.90      0.2      0.2    100      3.9      3.9   100      4.1     4.1     100     15.9    1.33     18      0      0      0      0    89.1    89.1      0     1.00      3.9      3.9      3.9   100    33.2     4.899    -9.9    0.000      94        0.00     639.2    639.2    1.33   334.0     536.6     420.3     387.5     291.0     291.0     239.6    0.000     0.000     0.000     0.000     0.000    1.33     0.00    0.00      0   -9.90   -9.00       15.8       18.6       17.3       17.3       31.8       33.0       33.0       33.0       33.0       33.0       33.0       33.0        0.0        0.0        0.0        0.0        0.0        0.0        0.0        0.0        0.0        0.0        0.0        0.0      4.8       3.9      18.8      23.9      28.9    351.85
     2     2  1989    43     2     639.1     4.3      0.0    0.0    4.3    0.0      0.0      0.0   -9.90      0.2      0.2    100      4.2      4.2   100      4.4     4.4     100     15.5    1.35     18      0      0      0      0    90.1    90.1      0     1.01      4.2      4.2      4.2   100    33.2     5.233    -9.9    0.000      94        0.00     639.1    639.1    1.35   340.8     545.4     427.2     395.9     297.1     297.1     243.6    0.000     0.000     0.000     0.000     0.000    1.35     0.00    0.00      0   -9.90   -9.00       15.7       18.6       17.3       17.3       31.8       33.0       33.0       33.0       33.0       33.0       33.0       33.0        0.0        0.0        0.0        0.0        0.0        0.0        0.0        0.0        0.0        0.0        0.0        0.0      4.3       4.2      18.0      23.5      29.0    351.85
     3     2  1989    44     2     636.7     1.2      0.0    0.0    1.2    0.0      0.0      0.0   -9.90      0.1      0.1    100      3.4      3.4   100      3.6     3.6     100     15.6    1.37     16      0      0      0      0    91.0    91.0      0     1.01      3.4      3.4      3.4   100    33.2     5.569    -9.9    0.000      95        0.00     636.7    636.7    1.37   345.3     554.2     434.1     396.7     298.5     298.5     247.6    0.000     0.000     0.000     0.000     0.000    1.37     0.00    0.00      0   -9.90   -9.00       16.8       18.6       17.3       17.3       29.4       33.0       33.0       33.0       33.0       33.0       33.0       33.0        0.0        0.0        0.0        0.0        0.0        0.0        0.0        0.0        0.0        0.0        0.0        0.0      1.2       3.4      19.1      23.6      28.2    351.85
     4     2  1989    45     2     633.1     0.9      0.0    0.0    0.9    0.0      0.0      0.0   -9.90      0.2      0.2    100      4.4      4.4   100      4.5     4.5     100     16.1    1.39     21      0      0      0      0    91.7    91.7      0     1.02      4.4      4.4      4.4   100    33.2     5.907    -9.9    0.000      95        0.00     633.1    633.1    1.39   348.8     563.2     441.1     409.6     307.3     307.3     251.6    0.000     0.000     0.000     0.000     0.000    1.39     0.00    0.00      0   -9.90   -9.00       17.6       18.6       17.3       17.3       26.3       33.0       33.0       33.0       33.0       33.0       33.0       33.0        0.0        0.0        0.0        0.0        0.0        0.0        0.0        0.0        0.0        0.0        0.0        0.0      0.9       4.3      18.7      24.1      29.5    351.85
     5     2  1989    46     2     630.9     3.0      0.0    0.0    3.0    0.0      0.0      0.0   -9.90      0.2      0.2    100      5.1      5.1   100      5.3     5.3     100     16.4    1.42     24      0      0      0      0    92.2    92.2      0     1.02      5.1      5.1      5.1   100    33.2     6.245    -9.9    0.000      95        0.00     630.9    630.9    1.42   353.7     572.3     448.3     421.3     315.4     315.4     255.8    0.000     0.000     0.000     0.000     0.000    1.42     0.00    0.00      0   -9.90   -9.00       15.6       18.6       17.3       17.3       26.0       33.0       33.0       33.0       33.0       33.0       33.0       33.0        0.0        0.0        0.0        0.0        0.0        0.0        0.0        0.0        0.0        0.0        0.0        0.0      3.0       5.0      18.9      24.5      30.1    351.85
     6     2  1989    47     2     626.9     0.6      0.0    0.0    0.6    0.0      0.0      0.0   -9.90      0.1      0.1    100      4.4      4.4   100      4.5     4.5     100     16.3    1.44     23      0      0      0      0    92.7    92.7      0     1.02      4.4      4.4      4.4   100    33.2     6.585    -9.9    0.000      95        0.00     626.9    626.9    1.44   356.8     581.3     455.3     422.8     317.3     317.3     259.8    0.000     0.000     0.000     0.000     0.000    1.44     0.00    0.00      0   -9.90   -9.00       16.1       18.6       17.3       17.3       22.9       33.0       33.0       33.0       33.0       33.0       33.0       33.0        0.0        0.0        0.0        0.0        0.0        0.0        0.0        0.0        0.0        0.0        0.0        0.0      0.6       4.3      18.9      24.3      29.6    351.85
     7     2  1989    48     2     621.9     0.4      0.0    0.0    0.4    0.0      0.0      0.0   -9.90      0.1      0.1    100      5.3      5.3   100      5.5     5.5     100     16.3    1.46     29      0      0      0      0    93.1    93.1      0     1.03      5.3      5.3      5.3   100    33.2     6.926    -9.9    0.000      95        0.00     621.9    621.9    1.46   358.8     590.2     462.4     436.1     326.3     326.3     263.9    0.000     0.000     0.000     0.000     0.000    1.46     0.00    0.00      0   -9.90   -9.00       16.4       18.6       17.3       17.3       19.7       32.7       33.0       33.0       33.0       33.0       33.0       33.0        0.0        0.0        0.0        0.0        0.0        0.0        0.0        0.0        0.0        0.0        0.0        0.0      0.4       5.2      18.6      24.9      31.2    351.85
     8     2  1989    49     2     618.5     1.5      0.0    0.0    1.5    0.0      0.0      0.0   -9.90      0.1      0.1    100      4.7      4.7   100      4.8     4.8     100     16.6    1.49     29      0      0      0      0    93.5    93.5      0     1.03      4.7      4.7      4.7   100    33.2     7.267    -9.9    0.000      96        0.00     618.5    618.5    1.49   362.6     599.3     469.5     438.2     328.6     328.6     268.0    0.000     0.000     0.000     0.000     0.000    1.49     0.00    0.00      0   -9.90   -9.00       17.9       18.6       17.3       17.3       17.6       31.7       33.0       33.0       33.0       33.0       33.0       33.0        0.0        0.0        0.0        0.0        0.0        0.0        0.0        0.0        0.0        0.0        0.0        0.0      1.5       4.6      19.2      24.9      30.5    351.85
     9     2  1989    50     2     614.0     0.4      0.0    0.0    0.4    0.0      0.0      0.0   -9.90      0.1      0.1    100      4.8      4.8   100      4.9     4.9     100     16.6    1.51     32      0      0      0      0    93.7    93.7      0     1.03      4.8      4.8      4.8   100    33.2     7.610    -9.9    0.000      96        0.00     614.0    614.0    1.51   365.1     608.3     476.6     445.6     334.0     334.0     272.0    0.000     0.000     0.000     0.000     0.000    1.51     0.00    0.00      0   -9.90   -9.00       17.2       18.6       17.3       17.3       17.6       29.7       33.0       33.0       33.0       33.0       33.0       33.0        0.0        0.0        0.0        0.0        0.0        0.0        0.0        0.0        0.0        0.0        0.0        0.0      0.4       4.7      19.3      24.6      29.8    351.85
    10     2  1989    51     2     610.5     0.9      0.0    0.0    0.9    0.0      0.0      0.0   -9.90      0.1      0.1    100      4.3      4.3   100      4.4     4.4     100     15.5    1.53     31      0      0      0      0    94.0    94.0      0     1.03      4.3      4.3      4.3   100    33.2     7.952    -9.9    0.000      96        0.00     610.5    610.5    1.53   368.2     616.7     483.2     447.9     336.3     336.3     275.8    0.000     0.000     0.000     0.000     0.000    1.53     0.00    0.00      0   -9.90   -9.00       17.9       18.6       17.3       17.3       17.6       27.5       33.0       33.0       33.0       33.0       33.0       33.0        0.0        0.0        0.0        0.0        0.0        0.0        0.0        0.0        0.0        0.0        0.0        0.0      0.9       4.2      19.2      23.5      27.9    351.85
    11     2  1989    52     2     607.3     0.1      0.0    0.0    0.1    0.0      0.0      0.0   -9.90      0.1      0.1    100      3.2      3.2   100      3.3     3.3     100     16.0    1.55     28      0      0      0      0    94.2    94.2      0     1.03      3.2      3.2      3.2   100    33.2     8.295    -9.9    0.000      96        0.00     607.3    607.3    1.55   371.8     625.3     489.9     445.5     335.6     335.6     279.7    0.000     0.000     0.000     0.000     0.000    1.55     0.00    0.00      0   -9.90   -9.00       17.9       18.6       17.3       17.3       17.6       25.8       33.0       33.0       33.0       33.0       33.0       33.0        0.0        0.0        0.0        0.0        0.0        0.0        0.0        0.0        0.0        0.0        0.0        0.0      0.1       3.1      19.3      24.0      28.7    351.85
    12     2  1989    53     2     604.0     1.7      0.0    0.0    1.7    0.0      0.0      0.0   -9.90      0.0      0.0    100      5.0      5.0   100      5.0     5.0     100     16.4    1.57     -9      0      0      0      0    95.6    95.6      0     1.04      5.0      5.0      5.0   100    33.2     8.640    -9.9    0.000      96        0.00     604.0    604.0    1.57   375.3     634.1     496.8     465.4     348.8     348.8     283.7    0.000     0.000     0.000     0.000     0.000    1.57     0.00    0.00      0   -9.90   -9.00       15.2       18.6       17.3       17.3       17.6       25.4       33.0       33.0       33.0       33.0       33.0       33.0        0.0        0.0        0.0        0.0        0.0        0.0        0.0        0.0        0.0        0.0        0.0        0.0      1.7       4.8      19.5      24.4      29.3    351.85
    13     2  1989    54     2     600.2     0.9      0.0    0.0    0.9    0.0      0.0      0.0   -9.90      0.0      0.0    100      4.7      4.7   100      4.7     4.7     100     16.6    1.59     -9      0      0      0      0    95.7    95.7      0     1.03      4.7      4.7      4.7   100    33.2     8.984    -9.9    0.000      96        0.00     600.2    600.2    1.59   378.5     642.9     503.8     469.4     352.2     352.2     287.7    0.000     0.000     0.000     0.000     0.000    1.59     0.00    0.00      0   -9.90   -9.00       16.1       18.6       17.3       17.3       17.6       23.0       33.0       33.0       33.0       33.0       33.0       33.0        0.0        0.0        0.0        0.0        0.0        0.0        0.0        0.0        0.0        0.0        0.0        0.0      0.9       4.5      19.2      24.6      30.0    351.85
    14     2  1989    55     2     595.8     0.9      0.0    0.0    0.9    0.0      0.0      0.0   -9.90      0.0      0.0    100      5.3      5.3   100      5.3     5.3     100     16.6    1.62     -9      0      0      0      0    95.7    95.7      0     1.03      5.3      5.3      5.3   100    33.2     9.328    -9.9    0.000      96        0.00     595.8    595.8    1.62   381.0     651.7     510.7     480.8     360.1     360.1     291.7    0.000     0.000     0.000     0.000     0.000    1.62     0.00    0.00      0   -9.90   -9.00       17.0       18.6       17.3       17.3       17.6       20.2       33.0       33.0       33.0       33.0       33.0       33.0        0.0        0.0        0.0        0.0        0.0        0.0        0.0        0.0        0.0        0.0        0.0        0.0      0.9       5.1      19.1      25.6      32.1    351.85
    15     2  1989    56     2     592.4     1.7      0.0    0.0    1.7    0.0      0.0      0.0   -9.90      0.0      0.0    100      5.0      5.0   100      5.1     5.1     100     16.9    1.64     -9      0      0      0      0    95.8    95.8      0     1.03      5.0      5.0      5.0   100    33.2     9.669    -9.9    0.000      97        0.00     592.4    592.4    1.64   384.6     660.6     517.7     485.8     364.0     364.0     295.7    0.000     0.000     0.000     0.000     0.000    1.64     0.00    0.00      0   -9.90   -9.00       15.7       18.6       17.3       17.3       17.6       19.1       33.0       33.0       33.0       33.0       33.0       33.0        0.0        0.0        0.0        0.0        0.0        0.0        0.0        0.0        0.0        0.0        0.0        0.0      1.7       4.9      19.8      25.1      30.5    351.85
    16     2  1989    57     2     588.6     1.5      0.0    0.0    1.5    0.0      0.0      0.0   -9.90      0.0      0.0    100      5.2      5.2   100      5.3     5.3     100     16.8    1.66     -9      0      0      0      0    95.8    95.8      0     1.03      5.2      5.2      5.2   100    33.2    10.010    -9.9    0.000      97        0.00     588.6    588.6    1.66   387.8     669.4     524.6     494.0     369.9     369.9     299.7    0.000     0.000     0.000     0.000     0.000    1.66     0.00    0.00      0   -9.90   -9.00       17.2       18.6       17.3       17.3       17.6       18.8       30.5       33.0       33.0       33.0       33.0       33.0        0.0        0.0        0.0        0.0        0.0        0.0        0.0        0.0        0.0        0.0        0.0        0.0      1.5       5.1      19.6      24.8      30.0    351.85
    17     2  1989    58     3     583.7     0.5      0.0    0.0    0.5    0.0      0.0      0.0   -9.90      0.0      0.0    100      5.4      5.4   100      5.5     5.5     100     16.8    1.68     -9      0      0      0      0    95.8    95.8      0     1.02      5.4      5.4      5.4   100    33.2    10.350    -9.9    0.000      97        0.00     583.7    583.7    1.68   389.7     678.2     531.5     502.2     375.9     375.9     303.7    0.000     0.000     0.000     0.000     0.000    1.68     0.00    0.00      0   -9.90   -9.00       17.7       18.6       17.3       17.3       17.6       18.8       28.1       32.6       33.0       33.0       33.0       33.0        0.0        0.0        0.0        0.0        0.0        0.0        0.0        0.0        0.0        0.0        0.0        0.0      0.5       5.3      19.6      25.7      31.8    351.85
    18     2  1989    59     3     579.1     0.0      0.0    0.0    0.0    0.0      0.0      0.0   -9.90      0.0      0.0    100      4.6      4.6   100      4.6     4.6     100     16.9    1.70     -9      0      0      0      0    95.9    95.9      0     1.02      4.6      4.6      4.6   100    33.2    10.691    -9.9    0.000      97        0.00     579.1    579.1    1.70   392.0     687.0     538.4     501.7     376.5     376.5     307.6    0.000     0.000     0.000     0.000     0.000    1.70     0.00    0.00      0   -9.90   -9.00       17.7       18.6       17.3       17.3       17.6       18.8       25.6       32.6       33.0       33.0       33.0       33.0        0.0        0.0        0.0        0.0        0.0        0.0        0.0        0.0        0.0        0.0        0.0        0.0      0.0       4.5      19.7      25.5      31.3    351.85
    19     2  1989    60     3     577.7     3.3      0.0    0.0    3.3    0.0      0.0      0.0   -9.90      0.0      0.0    100      4.6      4.6   100      4.6     4.6     100     16.6    1.73     -9      0      0      0      0    95.9    95.9      0     1.02      4.6      4.6      4.6   100    33.2    11.030    -9.9    0.000      97        0.00     577.7    577.7    1.73   397.4     695.6     545.2     508.1     381.3     381.3     311.5    0.000     0.000     0.000     0.000     0.000    1.73     0.00    0.00      0   -9.90   -9.00       16.3       18.6       17.3       17.3       17.6       18.8       25.6       32.6       33.0       33.0       33.0       33.0        0.0        0.0        0.0        0.0        0.0        0.0        0.0        0.0        0.0        0.0        0.0        0.0      3.3       4.5      19.3      24.9      30.4    351.85
    20     2  1989    61     3     578.4     5.8      0.0    0.0    5.8    0.0      0.0      0.0   -9.90      0.0      0.0    100      5.1      5.1   100      5.1     5.1     100     16.6    1.75     -9      0      0      0      0    95.9    95.9      0     1.02      5.1      5.1      5.1   100    33.2    11.367     1.6    0.186      97        0.09     578.4    578.4    1.75   404.8     704.1     551.9     518.8     388.7     388.7     315.4    0.000     0.000     0.000     0.000     0.000    1.75     0.00    0.00      0   -9.90   -9.00       17.2       18.6       17.3       17.3       17.6       18.8       25.6       32.6       33.0       33.0       33.0       33.0        0.0        0.0        0.0        0.0        0.0        0.0        0.0        0.0        0.0        0.0        0.0        0.0      5.8       5.0      19.2      25.1      31.1    351.85
    21     2  1989    62     3     574.6     1.2      0.0    0.0    1.2    0.0      0.0      0.0   -9.90      0.0      0.0    100      5.0      5.0   100      5.0     5.0     100     16.6    1.77     -9      0      0      0      0    95.9    95.9      0     1.02      5.0      5.0      5.0   100    33.2    11.705     1.9    0.225      97        0.10     574.6    574.6    1.77   407.7     712.7     558.6     524.2     392.9     392.9     319.3    0.000     0.000     0.000     0.000     0.000    1.77     0.00    0.00      0   -9.90   -9.00       16.4       18.6       17.3       17.3       17.6       18.8       24.0       32.6       33.0       33.0       33.0       33.0        0.0        0.0        0.0        0.0        0.0        0.0        0.0        0.0        0.0        0.0        0.0        0.0      1.2       4.9      19.3      25.5      31.6    351.85
    22     2  1989    63     3     572.0     2.5      0.0    0.0    2.5    0.0      0.0      0.0   -9.90      0.0      0.0    100      5.1      5.1   100      5.1     5.1     100     16.8    1.79     -9      0      0      0      0    95.9    95.9      0     1.01      5.1      5.1      5.1   100    33.2    12.041     2.2    0.271      97        0.12     572.0    572.0    1.79   411.9     721.3     565.4     531.5     398.3     398.3     323.2    0.000     0.000     0.000     0.000     0.000    1.79     0.00    0.00      0   -9.90   -9.00       15.5       18.6       17.3       17.3       17.6       18.8       23.1       32.6       33.0       33.0       33.0       33.0        0.0        0.0        0.0        0.0        0.0        0.0        0.0        0.0        0.0        0.0        0.0        0.0      2.5       5.0      19.6      24.9      30.2    351.85
    23     2  1989    64     3     572.1     3.3      0.0    0.0    3.3    0.0      0.0      0.0   -9.90      0.0      0.0    100      3.2      3.2   100      3.2     3.2     100     15.4    1.81     -9      0      0      0      0    96.0    96.0      0     1.01      3.2      3.2      3.2   100    33.2    12.376     2.6    0.325      97        0.14     572.1    572.1    1.81   418.1     729.1     571.5     520.6     392.4     392.4     326.7    0.000     0.000     0.000     0.000     0.000    1.81     0.00    0.00      0   -9.90   -9.00       15.5       18.6       17.3       17.3       17.6       18.8       23.1       32.6       33.0       33.0       33.0       33.0        0.0        0.0        0.0        0.0        0.0        0.0        0.0        0.0        0.0        0.0        0.0        0.0      3.3       3.2      19.9      23.4      26.8    351.85
    24     2  1989    65     3     570.4     1.8      0.0    0.0    1.8    0.0      0.0      0.0   -9.90      0.0      0.0    100      3.4      3.4   100      3.4     3.4     100     17.1    1.83     -9      0      0      0      0    96.0    96.0      0     1.01      3.4      3.4      3.4   100    33.2    12.710     3.1    0.390      97        0.17     570.4    570.4    1.83   423.3     737.8     578.3     528.7     398.2     398.2     330.6    0.000     0.000     0.000     0.000     0.000    1.83     0.00    0.00      0   -9.90   -9.00       17.4       18.6       17.3       17.3       17.6       18.8       21.3       32.6       33.0       33.0       33.0       33.0        0.0        0.0        0.0        0.0        0.0        0.0        0.0        0.0        0.0        0.0        0.0        0.0      1.8       3.4      20.1      25.2      30.3    351.85
    25     2  1989    66     3     565.6     0.1      0.0    0.0    0.1    0.0      0.0      0.0   -9.90      0.0      0.0    100      4.9      4.9   100      4.9     4.9     100     16.6    1.85     -9      0      0      0      0    96.0    96.0      0     1.00      4.9      4.9      4.9   100    33.2    13.044     3.6    0.467      97        0.19     565.6    565.6    1.85   425.0     746.2     584.9     548.9     411.5     411.5     334.4    0.000     0.000     0.000     0.000     0.000    1.85     0.00    0.00      0   -9.90   -9.00       17.4       18.6       17.3       17.3       17.6       18.8       18.7       32.6       33.0       33.0       33.0       33.0        0.0        0.0        0.0        0.0        0.0        0.0        0.0        0.0        0.0        0.0        0.0        0.0      0.1       4.9      19.3      25.2      31.1    351.85
    26     2  1989    67     3     562.7     1.8      0.0    0.0    1.8    0.0      0.0      0.0   -9.90      0.0      0.0    100      4.7      4.7   100      4.7     4.7     100     16.9    1.87     -9      0      0      0      0    96.0    96.0      0     1.00      4.7      4.7      4.7   100    33.2    13.376     4.2    0.557      97        0.23     562.7    562.7    1.87   428.8     754.7     591.6     553.3     415.1     415.1     338.3    0.000     0.000     0.000     0.000     0.000    1.87     0.00    0.00      0   -9.90   -9.00       15.2       18.6       17.3       17.3       17.6       18.8       18.7       32.2       33.0       33.0       33.0       33.0        0.0        0.0        0.0        0.0        0.0        0.0        0.0        0.0        0.0        0.0        0.0        0.0      1.8       4.7      19.9      25.1      30.4    351.85
    27     2  1989    68     3     558.3     0.2      0.0    0.0    0.2    0.0      0.0      0.0   -9.90      0.0      0.0    100      4.6      4.6   100      4.6     4.6     100     16.9    1.90     -9      0      0      0      0    96.0    96.0      0     1.00      4.6      4.6      4.6   100    33.2    13.707     4.8    0.663      98        0.27     558.3    558.3    1.90   431.1     763.2     598.3     558.6     419.2     419.2     342.1    0.000     0.000     0.000     0.000     0.000    1.90     0.00    0.00      0   -9.90   -9.00       15.4       18.6       17.3       17.3       17.6       18.8       18.7       29.9       32.9       33.0       33.0       33.0        0.0        0.0        0.0        0.0        0.0        0.0        0.0        0.0        0.0        0.0        0.0        0.0      0.2       4.6      19.7      24.9      30.0    351.85
    28     2  1989    69     4     554.0     1.1      0.0    0.0    1.1    0.0      0.0      0.0   -9.90      0.0      0.0    100      5.4      5.4   100      5.4     5.4     100     16.7    1.92     -9      0      0      0      0    96.0    96.0      0     0.99      5.4      5.4      5.4   100    33.2    14.037     5.6    0.787      98        0.31     554.0    554.0    1.92   433.3     771.5     604.8     572.5     428.6     428.6     345.9    0.000     0.000     0.000     0.000     0.000    1.92     0.00    0.00      0   -9.90   -9.00       16.5       18.6       17.3       17.3       17.6       18.8       18.7       27.6       32.5       33.0       33.0       33.0        0.0        0.0        0.0        0.0        0.0        0.0        0.0        0.0        0.0        0.0        0.0        0.0      1.1       5.4      19.4      25.9      32.4    351.85
     1     3  1989    70     4     549.4     0.8      0.0    0.0    0.8    0.0      0.0      0.0   -9.90      0.0      0.0    100      5.4      5.4   100      5.4     5.4     100     16.9    1.94     -9      0      0      0      0    96.0    96.0      0     0.99      5.4      5.4      5.4   100    33.2    14.366     6.5    0.930      98        0.36     549.4    549.4    1.94   435.4     780.0     611.5     578.8     433.3     433.3     349.7    0.000     0.000     0.000     0.000     0.000    1.94     0.00    0.00      0   -9.90   -9.00       17.3       18.6       17.3       17.3       17.6       18.8       18.7       25.2       32.2       33.0       33.0       33.0        0.0        0.0        0.0        0.0        0.0        0.0        0.0        0.0        0.0        0.0        0.0        0.0      0.8       5.4      19.9      26.1      32.4    351.85
     2     3  1989    71     4     543.9     0.1      0.0    0.0    0.1    0.0      0.0      0.0   -9.90      0.0      0.0    100      5.5      5.5   100      5.6     5.6     100     16.8    1.96     -9      0      0      0      0    96.0    96.0      0     0.99      5.5      5.5      5.5   100    33.2    14.695     7.5    1.096      98        0.41     543.9    543.9    1.96   436.4     788.3     618.0     587.0     439.2     439.2     353.5    0.000     0.000     0.000     0.000     0.000    1.96     0.00    0.00      0   -9.90   -9.00       17.4       18.6       17.3       17.3       17.6       18.8       18.7       22.8       31.8       33.0       33.0       33.0        0.0        0.0        0.0        0.0        0.0        0.0        0.0        0.0        0.0        0.0        0.0        0.0      0.1       5.6      19.6      26.1      32.6    351.85
     3     3  1989    72     4     540.9     1.7      0.0    0.0    1.7    0.0      0.0      0.0   -9.90      0.0      0.0    100      4.6      4.6   100      4.7     4.7     100     16.3    1.98     -9      0      0      0      0    96.0    96.0      0     0.99      4.6      4.6      4.6   100    33.2    15.023     8.6    1.286      98        0.48     540.9    540.9    1.98   439.8     796.4     624.3     583.9     438.1     438.1     357.1    0.000     0.000     0.000     0.000     0.000    1.98     0.00    0.00      0   -9.90   -9.00       15.3       18.6       17.3       17.3       17.6       18.8       18.7       22.3       31.8       33.0       33.0       33.0        0.0        0.0        0.0        0.0        0.0        0.0        0.0        0.0        0.0        0.0        0.0        0.0      1.7       4.7      20.4      24.3      28.1    351.85
     4     3  1989    73     4     538.6     2.3      0.0    0.0    2.3    0.0      0.0      0.0   -9.90      0.0      0.0    100      4.6      4.6   100      4.7     4.7     100     17.0    2.00     -9      0      0      0      0    96.0    96.0      0     0.98      4.6      4.6      4.6   100    33.2    15.351     9.8    1.500      98        0.55     538.6    538.6    2.00   444.0     804.7     630.9     590.1     442.7     442.7     360.9    0.000     0.000     0.000     0.000     0.000    2.00     0.00    0.00      0   -9.90   -9.00       17.6       18.6       17.3       17.3       17.6       18.8       18.7       19.9       31.8       33.0       33.0       33.0        0.0        0.0        0.0        0.0        0.0        0.0        0.0        0.0        0.0        0.0        0.0        0.0      2.3       4.7      20.1      25.0      29.9    351.85
     5     3  1989    74     4     535.7     1.4      0.0    0.0    1.4    0.0      0.0      0.0   -9.90      0.0      0.0    100      4.2      4.2   100      4.2     4.2     100     16.9    2.02     -9      0      0      0      0    96.0    96.0      0     0.98      4.2      4.2      4.2   100    33.2    15.677    11.0    1.722      98        0.62     535.7    535.7    2.02   447.7     813.1     637.5     592.1     444.8     444.8     364.7    0.000     0.000     0.000     0.000     0.000    2.02     0.00    0.00      0   -9.90   -9.00       15.2       18.6       17.3       17.3       17.6       18.8       18.7       19.6       31.8       33.0       33.0       33.0        0.0        0.0        0.0        0.0        0.0        0.0        0.0        0.0        0.0        0.0        0.0        0.0      1.4       4.3      19.9      25.3      30.6    351.85
     6     3  1989    75     4     531.4     1.0      0.0    0.0    1.0    0.0      0.0      0.0   -9.90      0.0      0.0    100      5.5      5.3    97      5.5     5.4      97     16.9    2.04     -9      3      1      0      0    96.0    96.0      0     0.98      5.5      5.3      5.3    97    33.2    15.993    12.2    1.950      98        0.69     531.4    531.4    2.04   449.9     821.4     644.0     611.6     457.7     457.7     368.4    0.000     0.000     0.000     0.000     0.000    2.04     0.00    0.00      0   -9.90   -9.00       16.2       18.6       17.3       17.3       17.6       18.8       18.7       18.2       30.6       33.0       33.0       33.0        0.0        0.0        0.0        0.0        0.0        0.0        0.0        0.0        0.0        0.0        0.0        0.0      1.0       5.6      19.9      25.1      30.3    351.85
     7     3  1989    76     4     526.5     0.3      0.0    0.0    0.3    0.0      0.0      0.0   -9.90      0.0      0.0    100      5.5      5.1    94      5.5     5.1      94     16.5    2.06     -9      6      1      0      0    95.9    95.9      0     0.97      5.5      5.1      5.1    94    33.2    16.296    13.4    2.184      98        0.75     526.5    526.5    2.06   451.4     829.4     650.3     617.6     462.2     484.8     372.1    0.000     0.000     0.000     0.000     0.000    2.06     0.00    0.00      0   -9.90   -9.00       16.5       18.6       17.3       17.3       17.6       18.8       18.7       18.2       28.6       32.9       33.0       33.0        0.0        0.0        0.0        0.0        0.0        0.0        0.0        0.0        0.0        0.0        0.0        0.0      0.3       5.6      19.0      25.1      31.3    351.85
     8     3  1989    77     4     522.3     0.6      0.0    0.0    0.6    0.0      0.0      0.0   -9.90      0.0      0.0    100      5.1      4.8    93      5.2     4.8      93     16.6    2.08     -9      7      2      0      0    95.8    95.8      0     0.97      5.1      4.8      4.8    93    33.2    16.593    14.6    2.425      98        0.82     522.3    522.3    2.08   453.5     837.4     656.6     620.5     464.7     487.8     375.7    0.000     0.000     0.000     0.000     0.000    2.08     0.00    0.00      0   -9.90   -9.00       17.1       18.6       17.3       17.3       17.6       18.8       18.7       18.2       26.6       32.9       33.0       33.0        0.0        0.0        0.0        0.0        0.0        0.0        0.0        0.0        0.0        0.0        0.0        0.0      0.6       5.3      19.1      25.3      31.5    351.85
     9     3  1989    78     4     518.7     1.2      0.0    0.0    1.2    0.0      0.0      0.0   -9.90      0.0      0.0    100      5.3      4.7    90      5.3     4.8      90     16.6    2.10     -9     10      2      0      0    95.6    95.6      0     0.96      5.3      4.7      4.7    90    33.2    16.880    15.8    2.671      97        0.89     518.7    518.7    2.10   456.2     845.5     662.9     628.6     470.5     493.6     379.3    0.000     0.000     0.000     0.000     0.000    2.10     0.00    0.00      0   -9.90   -9.00       16.8       18.6       17.3       17.3       17.6       18.8       18.7       18.2       25.2       32.9       33.0       33.0        0.0        0.0        0.0        0.0        0.0        0.0        0.0        0.0        0.0        0.0        0.0        0.0      1.2       5.5      19.1      25.1      31.1    351.85
    10     3  1989    79     4     515.3     1.1      0.0    0.0    1.1    0.0      0.0      0.0   -9.90      0.0      0.0    100      5.1      4.5    89      5.1     4.5      89     16.5    2.12     -9     11      3      0      0    95.5    95.5      0     0.96      5.1      4.5      4.5    89    33.2    17.162    17.0    2.923      97        0.96     515.3    515.3    2.12   459.0     853.4     669.2     632.3     473.7     497.1     382.9    0.000     0.000     0.000     0.000     0.000    2.12     0.00    0.00      0   -9.90   -9.00       17.9       18.6       17.3       17.3       17.6       18.8       18.7       18.2       23.3       32.9       33.0       33.0        0.0        0.0        0.0        0.0        0.0        0.0        0.0        0.0        0.0        0.0        0.0        0.0      1.1       5.3      19.0      24.5      30.0    351.85
    11     3  1989    80     4     511.0     0.3      0.0    0.0    0.3    0.0      0.0      0.0   -9.90      0.1      0.1    100      5.3      4.5    84      5.4     4.6      85     16.2    2.14     -9     16      4      0      0    95.2    95.2      0     0.95      5.3      4.5      4.5    84    33.2    17.429    18.2    3.179      97        1.03     511.0    511.0    2.14   460.8     861.2     675.3     641.4     480.0     503.4     386.5    0.000     0.000     0.000     0.000     0.000    2.14     0.00    0.00      0   -9.90   -9.00       17.4       18.6       17.3       17.3       17.6       18.8       18.7       18.2       21.7       32.9       33.0       33.0        0.0        0.0        0.0        0.0        0.0        0.0        0.0        0.0        0.0        0.0        0.0        0.0      0.3       5.6      18.4      24.9      31.5    351.85
    12     3  1989    81     4     507.7     0.9      0.0    0.0    0.9    0.0      0.0      0.0   -9.90      0.1      0.1    100      4.9      4.2    85      5.0     4.2      85     16.4    2.16     -9     15      4      0      0    95.0    95.0      0     0.94      4.9      4.2      4.2    85    33.2    17.695    19.4    3.441      97        1.10     507.7    507.7    2.16   463.7     869.0     681.4     642.8     481.7     505.7     390.0    0.000     0.000     0.000     0.000     0.000    2.16     0.00    0.00      0   -9.90   -9.00       16.8       18.6       17.3       17.3       17.6       18.8       18.7       18.2       20.6       32.9       33.0       33.0        0.0        0.0        0.0        0.0        0.0        0.0        0.0        0.0        0.0        0.0        0.0        0.0      0.9       5.2      18.8      24.5      30.1    351.85
    13     3  1989    82     4     504.5     0.4      0.0    0.0    0.4    0.0      0.0      0.0   -9.90      0.1      0.1    100      4.0      3.6    89      4.1     3.6      89     15.6    2.18     -9     11      3      0      0    94.8    94.8      0     0.94      4.0      3.6      3.6    89    33.2    17.972    20.7    3.712      97        1.17     504.5    504.5    2.18   466.3     876.5     687.3     638.4     479.7     504.6     393.4    0.000     0.000     0.000     0.000     0.000    2.18     0.00    0.00      0   -9.90   -9.00       17.1       18.6       17.3       17.3       17.6       18.8       18.7       18.2       19.1       32.9       33.0       33.0        0.0        0.0        0.0        0.0        0.0        0.0        0.0        0.0        0.0        0.0        0.0        0.0      0.4       4.3      18.9      23.6      28.4    351.85
    14     3  1989    83     4     502.5     1.7      0.0    0.0    1.7    0.0      0.0      0.0   -9.90      0.1      0.1    100      4.1      3.6    88      4.2     3.7      88     15.6    2.20     -9     12      3      0      0    94.6    94.6      0     0.93      4.1      3.6      3.6    88    33.2    18.243    21.9    3.989      96        1.25     502.5    502.5    2.20   470.2     883.9     693.1     644.9     484.5     509.5     396.7    0.000     0.000     0.000     0.000     0.000    2.20     0.00    0.00      0   -9.90   -9.00       15.5       18.6       17.3       17.3       17.6       18.8       18.7       18.2       18.9       32.9       33.0       33.0        0.0        0.0        0.0        0.0        0.0        0.0        0.0        0.0        0.0        0.0        0.0        0.0      1.7       4.4      18.8      23.6      28.3    351.85
    15     3  1989    84     4     500.6     2.0      0.0    0.0    2.0    0.0      0.0      0.0   -9.90      0.1      0.1    100      4.5      3.8    85      4.6     3.9      85     16.3    2.22     -9     15      4      0      0    94.3    94.3      0     0.93      4.5      3.8      3.8    85    33.2    18.504    23.1    4.269      96        1.32     500.6    500.6    2.22   474.3     891.6     699.2     656.2     492.2     517.1     400.2    0.000     0.000     0.000     0.000     0.000    2.22     0.00    0.00      0   -9.90   -9.00       17.5       18.6       17.3       17.3       17.6       18.8       18.7       18.2       18.9       31.3       33.0       33.0        0.0        0.0        0.0        0.0        0.0        0.0        0.0        0.0        0.0        0.0        0.0        0.0      2.0       4.9      18.8      24.3      29.8    351.85
    16     3  1989    85     4     499.1     2.5      0.0    0.0    2.5    0.0      0.0      0.0   -9.90      0.1      0.1    100      4.5      3.8    85      4.6     3.9      86     16.0    2.24     -9     15      4      0      0    94.0    94.0      0     0.92      4.5      3.8      3.8    85    33.2    18.764    24.3    4.556      96        1.39     499.1    499.1    2.24   478.8     899.2     705.2     661.8     496.4     521.5     403.7    0.000     0.000     0.000     0.000     0.000    2.24     0.00    0.00      0   -9.90   -9.00       16.0       18.6       17.3       17.3       17.6       18.8       18.7       18.2       18.9       31.3       33.0       33.0        0.0        0.0        0.0        0.0        0.0        0.0        0.0        0.0        0.0        0.0        0.0        0.0      2.5       4.9      18.2      24.0      29.8    351.85
    17     3  1989    86     4     497.0     2.1      0.0    0.0    2.1    0.0      0.0      0.0   -9.90      0.1      0.1    100      5.1      4.1    81      5.2     4.2      81     16.1    2.25     -9     19      5      0      0    93.7    93.7      0     0.91      5.1      4.1      4.1    81    33.2    19.008    25.5    4.845      96        1.46     497.0    497.0    2.25   482.7     906.8     711.1     675.4     505.6     530.2     407.1    0.000     0.000     0.000     0.000     0.000    2.25     0.00    0.00      0   -9.90   -9.00       17.6       18.6       17.3       17.3       17.6       18.8       18.7       18.2       18.9       29.7       33.0       33.0        0.0        0.0        0.0        0.0        0.0        0.0        0.0        0.0        0.0        0.0        0.0        0.0      2.1       5.6      18.3      24.4      30.5    351.85
    18     3  1989    87     4     493.4     0.2      0.0    0.0    0.2    0.0      0.0      0.0   -9.90      0.1      0.1    100      4.5      3.7    82      4.6     3.8      83     16.1    2.27     -9     18      4      0      0    93.3    93.3      0     0.90      4.5      3.7      3.7    82    33.2    19.254    26.7    5.140      95        1.53     493.4    493.4    2.27   485.0     914.4     717.1     674.2     505.5     530.9     410.5    0.000     0.000     0.000     0.000     0.000    2.27     0.00    0.00      0   -9.90   -9.00       17.7       18.6       17.3       17.3       17.6       18.8       18.7       18.2       18.9       28.2       33.0       33.0        0.0        0.0        0.0        0.0        0.0        0.0        0.0        0.0        0.0        0.0        0.0        0.0      0.2       5.0      18.2      24.6      31.1    351.85
    19     3  1989    88     4     491.2     1.3      0.0    0.0    1.3    0.0      0.0      0.0   -9.90      0.1      0.1    100      4.0      3.4    85      4.1     3.5      85     15.8    2.29     -9     15      4      0      0    93.0    93.0      0     0.89      4.0      3.4      3.4    85    33.2    19.505    27.9    5.442      95        1.60     491.2    491.2    2.29   488.6     921.8     722.9     673.8     506.1     532.1     413.9    0.000     0.000     0.000     0.000     0.000    2.29     0.00    0.00      0   -9.90   -9.00       15.4       18.6       17.3       17.3       17.6       18.8       18.7       18.2       18.9       28.2       33.0       33.0        0.0        0.0        0.0        0.0        0.0        0.0        0.0        0.0        0.0        0.0        0.0        0.0      1.3       4.5      19.0      23.8      28.6    351.85
    20     3  1989    89     4     489.0     1.7      0.0    0.0    1.7    0.0      0.0      0.0   -9.90      0.2      0.2    100      4.7      3.7    78      4.9     3.9      79     16.4    2.30     -9     22      6      0      0    92.3    92.3      0     0.88      4.7      3.7      3.7    78    33.2    19.733    29.1    5.744      95        1.67     489.0    489.0    2.30   488.8     924.8     725.2     686.5     514.2     539.5     415.2    0.000     0.000     0.000     0.000     0.000    2.30     0.00    0.00      0   -9.90   -9.00       17.0       18.6       17.3       17.3       17.6       18.8       18.7       18.2       18.9       26.6       33.0       33.0        0.0        0.0        0.0        0.0        0.0        0.0        0.0        0.0        0.0        0.0        0.0        0.0      1.7       5.4      19.0      24.4      29.7    351.85
    21     3  1989    90     4     486.1     0.8      0.0    0.0    0.8    0.0      0.0      0.0   -9.90      0.2      0.2    100      4.6      3.5    75      4.8     3.7      76     16.6    2.30     -9     25      7      0      0    91.3    91.3      0     0.86      4.6      3.5      3.5    75    33.2    19.947    30.3    6.047      95        1.74     486.1    486.1    2.30   485.9     924.8     725.2     686.5     514.2     539.5     415.2    0.000     0.000     0.000     0.000     0.000    2.30     0.00    0.00      0   -9.90   -9.00       17.6       18.6       17.3       17.3       17.6       18.8       18.7       18.2       18.9       25.1       33.0       33.0        0.0        0.0        0.0        0.0        0.0        0.0        0.0        0.0        0.0        0.0        0.0        0.0      0.8       5.4      19.3      24.9      30.4    351.85
[...]
    15     3  2018    84     4     484.3     0.0      0.0    0.0    0.0    0.0      0.0      0.0   -9.90      0.7      0.1      8      3.9      2.5    64      4.6     2.6      56     16.8    2.23     -9     36     12      0      0    79.4    79.4      0     0.71      3.9      2.5      2.5    64    34.7    17.606    25.1    4.411      88        1.49     484.3    484.3    2.23   462.0     896.7     703.2     666.8     499.2     523.7     402.5    0.000     0.000     0.000     0.000     0.000    2.23     0.00    0.00      0   -9.90   -9.00       15.4       18.6       17.7       18.8       17.7       18.1       18.4       18.5       19.0       24.7       33.0       33.0        0.0        0.0        0.0        0.0        0.0        0.0        0.0        0.0        0.0        0.0        0.0        0.0      0.0       5.5      19.5      25.4      31.4    407.21
    16     3  2018    85     4     482.8     1.2      0.0    0.0    1.2    0.0      0.0      0.0   -9.90      0.6      0.6    100      3.0      2.1    70      3.6     2.7      75     16.8    2.25     -9     30      9      0      0    77.7    77.7      0     0.69      3.0      2.1      2.1    70    34.7    17.774    26.3    4.673      87        1.56     482.8    482.8    2.25   466.7     904.5     709.3     658.9     495.2     520.9     406.1    0.000     0.000     0.000     0.000     0.000    2.25     0.00    0.00      0   -9.90   -9.00       16.0       18.6       17.7       18.8       17.7       18.1       18.4       18.5       19.0       23.8       33.0       33.0        0.0        0.0        0.0        0.0        0.0        0.0        0.0        0.0        0.0        0.0        0.0        0.0      1.2       4.3      19.6      25.1      30.6    407.21
    17     3  2018    86     4     481.8     1.3      0.0    0.0    1.3    0.0      0.0      0.0   -9.90      0.5      0.5    100      2.4      1.8    75      2.9     2.4      80     16.8    2.27     -9     25      7      0      0    76.2    76.2      0     0.67      2.4      1.8      1.8    75    34.7    17.948    27.5    4.940      87        1.64     481.8    481.8    2.27   471.8     912.4     715.5     656.5     494.5     521.0     409.6    0.000     0.000     0.000     0.000     0.000    2.27     0.00    0.00      0   -9.90   -9.00       16.8       18.6       17.7       18.8       17.7       18.1       18.4       18.5       19.0       23.1       33.0       33.0        0.0        0.0        0.0        0.0        0.0        0.0        0.0        0.0        0.0        0.0        0.0        0.0      1.3       3.6      19.5      24.8      30.1    407.21
    18     3  2018    87     4     480.2     0.8      0.0    0.0    0.8    0.0      0.0      0.0   -9.90      0.6      0.6    100      2.4      1.8    75      3.0     2.4      80     16.6    2.29     -9     25      7      0      0    74.6    74.6      0     0.64      2.4      1.8      1.8    75    34.7    18.115    28.8    5.210      86        1.72     480.2    480.2    2.29   476.3     920.1     721.6     663.3     499.5     526.1     413.1    0.000     0.000     0.000     0.000     0.000    2.29     0.00    0.00      0   -9.90   -9.00       17.0       18.6       17.7       18.8       17.7       18.1       18.4       18.5       19.0       22.3       33.0       33.0        0.0        0.0        0.0        0.0        0.0        0.0        0.0        0.0        0.0        0.0        0.0        0.0      0.8       3.7      19.7      24.6      29.5    407.21
    19     3  2018    88     4     478.5     0.5      0.0    0.0    0.5    0.0      0.0      0.0   -9.90      0.6      0.5     81      2.3      1.7    74      2.9     2.2      76     16.4    2.30     -9     26      7      0      0    72.8    72.8      0     0.61      2.3      1.7      1.7    74    34.7    18.273    30.0    5.481      86        1.79     478.5    478.5    2.30   477.3     923.5     724.2     665.7     501.3     528.1     414.6    0.000     0.000     0.000     0.000     0.000    2.30     0.00    0.00      0   -9.90   -9.00       17.0       18.6       17.7       18.8       17.7       18.1       18.4       18.5       19.0       21.6       33.0       33.0        0.0        0.0        0.0        0.0        0.0        0.0        0.0        0.0        0.0        0.0        0.0        0.0      0.5       3.7      19.6      24.4      29.2    407.21
    20     3  2018    89     4     476.7     1.1      0.0    0.0    1.1    0.0      0.0      0.0   -9.90      1.0      1.0    100      3.0      1.9    65      4.0     2.9      73     16.7    2.30     -9     35     11      0      0    70.0    70.0      0     0.57      3.0      1.9      1.9    65    34.7    18.401    31.2    5.747      85        1.86     476.7    476.7    2.30   475.4     923.5     724.2     683.2     512.1     537.5     414.6    0.000     0.000     0.000     0.000     0.000    2.30     0.00    0.00      0   -9.90   -9.00       17.1       18.6       17.7       18.8       17.7       18.1       18.4       18.5       19.0       20.8       33.0       33.0        0.0        0.0        0.0        0.0        0.0        0.0        0.0        0.0        0.0        0.0        0.0        0.0      1.1       5.2      19.4      25.0      30.7    407.21
    21     3  2018    90     4     475.0     0.4      0.0    0.0    0.4    0.0      0.0      0.0   -9.90      1.0      0.5     47      2.5      1.6    65      3.5     2.1      60     16.6    2.30     -9     35     11      0      0    66.9    66.9      0     0.53      2.5      1.6      1.6    65    34.7    18.520    32.5    6.012      84        1.93     475.0    475.0    2.30   473.8     923.5     724.2     677.4     508.5     534.4     414.6    0.000     0.000     0.000     0.000     0.000    2.30     0.00    0.00      0   -9.90   -9.00       17.0       18.6       17.7       18.8       17.7       18.1       18.4       18.5       19.0       20.1       33.0       33.0        0.0        0.0        0.0        0.0        0.0        0.0        0.0        0.0        0.0        0.0        0.0        0.0      0.4       4.7      19.2      25.3      31.3    407.21
    22     3  2018    91     4     473.5     0.9      0.0    0.0    0.9    0.0      0.0      0.0   -9.90      1.1      0.9     83      2.4      1.5    62      3.5     2.4      69     16.6    2.30     -9     38     12      0      0    63.2    63.2      0     0.48      2.4      1.5      1.5    62    34.7    18.624    33.7    6.275      84        2.00     473.5    473.5    2.30   472.3     923.5     724.2     679.7     509.9     535.6     414.6    0.000     0.000     0.000     0.000     0.000    2.30     0.00    0.00      0   -9.90   -9.00       17.0       18.6       17.7       18.8       17.7       18.1       18.4       18.5       19.0       19.5       33.0       33.0        0.0        0.0        0.0        0.0        0.0        0.0        0.0        0.0        0.0        0.0        0.0        0.0      0.9       4.9      19.3      25.4      31.5    407.21
    23     3  2018    92     4     473.2     1.6      0.0    0.0    1.6    0.0      0.0      0.0   -9.90      0.9      0.9    100      1.6      1.1    68      2.5     1.9      79     16.3    2.30     -9     32     10      0      0    59.9    59.9      0     0.44      1.6      1.1      1.1    68    34.7    18.727    34.9    6.540      83        2.07     473.2    473.2    2.30   471.9     923.5     724.2     664.6     500.6     527.4     414.6    0.000     0.000     0.000     0.000     0.000    2.30     0.00    0.00      0   -9.90   -9.00       17.7       18.6       17.7       18.8       17.7       18.1       18.4       18.5       19.0       19.1       33.0       33.0        0.0        0.0        0.0        0.0        0.0        0.0        0.0        0.0        0.0        0.0        0.0        0.0      1.6       3.6      19.4      24.3      29.1    407.21
    24     3  2018    93     4     472.0     0.5      0.0    0.0    0.5    0.0      0.0      0.0   -9.90      1.3      0.6     46      1.8      1.1    61      3.1     1.7      55     16.6    2.30     -9     39     13      0      0    55.1    55.1      0     0.38      1.8      1.1      1.1    61    34.7    18.807    36.2    6.800      82        2.15     472.0    472.0    2.30   470.7     923.5     724.2     678.6     509.2     535.0     414.6    0.000     0.000     0.000     0.000     0.000    2.30     0.00    0.00      0   -9.90   -9.00       17.7       18.6       17.7       18.8       17.7       18.1       18.4       18.5       19.0       18.9       32.7       33.0        0.0        0.0        0.0        0.0        0.0        0.0        0.0        0.0        0.0        0.0        0.0        0.0      0.5       4.8      19.2      25.1      31.1    407.21
    25     3  2018    94     4     471.0     0.8      0.0    0.0    0.8    0.0      0.0      0.0   -9.90      1.5      0.9     59      1.6      0.9    58      3.1     1.8      58     16.8    2.30     -9     42     15      0      0    49.4    49.4      0     0.31      1.6      0.9      0.9    58    34.7    18.870    37.4    7.054      82        2.21     471.0    471.0    2.30   469.7     923.5     724.2     683.2     512.1     537.5     414.6    0.000     0.000     0.000     0.000     0.000    2.30     0.00    0.00      0   -9.90   -9.00       17.6       18.6       17.7       18.8       17.7       18.1       18.4       18.5       19.0       18.9       32.3       33.0        0.0        0.0        0.0        0.0        0.0        0.0        0.0        0.0        0.0        0.0        0.0        0.0      0.8       5.2      19.5      24.9      30.2    407.21
    26     3  2018    95     4     470.2     0.1      0.0    0.0    0.1    0.0      0.0      0.0   -9.90      1.2      0.2     18      1.0      0.6    62      2.2     0.8      38     16.7    2.30     -9     38     13      0      0    43.5    43.5      0     0.25      1.0      0.6      0.6    62    34.7    18.923    38.6    7.307      81        2.29     470.2    470.2    2.30   469.0     923.5     724.2     669.2     503.5     530.0     414.6    0.000     0.000     0.000     0.000     0.000    2.30     0.00    0.00      0   -9.90   -9.00       17.4       18.6       17.7       18.8       17.7       18.1       18.4       18.5       19.0       18.9       32.0       33.0        0.0        0.0        0.0        0.0        0.0        0.0        0.0        0.0        0.0        0.0        0.0        0.0      0.1       4.0      19.4      24.7      30.0    407.21
    27     3  2018    96     4     469.7     0.7      0.0    0.0    0.7    0.0      0.0      0.0   -9.90      1.4      0.8     55      0.8      0.5    60      2.2     1.3      56     16.4    2.30     -9     40     14      0      0    36.7    36.7      0     0.18      0.8      0.5      0.5    60    34.7    18.962    39.8    7.554      81        2.35     469.7    469.7    2.30   468.4     923.5     724.2     672.7     505.6     531.8     414.6    0.000     0.000     0.000     0.000     0.000    2.30     0.00    0.00      0   -9.90   -9.00       17.4       18.6       17.7       18.8       17.7       18.1       18.4       18.5       19.0       18.9       31.8       33.0        0.0        0.0        0.0        0.0        0.0        0.0        0.0        0.0        0.0        0.0        0.0        0.0      0.7       4.3      19.1      24.4      29.7    407.21
    28     3  2018    97     4     469.3     0.7      0.0    0.0    0.7    0.0      0.0      0.0   -9.90      1.6      0.8     50      0.5      0.3    60      2.1     1.1      52     16.6    2.30     -9     40     14      0      0    29.1    29.1      0     0.12      0.5      0.3      0.3    60    34.7    18.987    41.1    7.798      80        2.42     469.3    469.3    2.30   468.0     923.5     724.2     670.4     504.2     530.6     414.6    0.000     0.000     0.000     0.000     0.000    2.30     0.00    0.00      0   -9.90   -9.00       17.3       18.6       17.7       18.8       17.7       18.1       18.4       18.5       19.0       18.9       31.7       33.0        0.0        0.0        0.0        0.0        0.0        0.0        0.0        0.0        0.0        0.0        0.0        0.0      0.7       4.1      19.2      24.7      30.2    407.21
    29     3  2018    98     4     469.0     0.6      0.0    0.0    0.6    0.0      0.0      0.0   -9.90      2.0      0.7     38      0.3      0.2    59      2.2     0.9      40     16.8    2.30     -9     41     14      0      0    20.2    20.2      0     0.06      0.3      0.2      0.2    59    34.7    18.999    42.3    8.036      79        2.49     469.0    469.0    2.30   467.7     923.5     724.2     671.6     504.9     531.2     414.6    0.000     0.000     0.000     0.000     0.000    2.30     0.00    0.00      0   -9.90   -9.00       17.1       18.6       17.7       18.8       17.7       18.1       18.4       18.5       19.0       18.9       31.6       33.0        0.0        0.0        0.0        0.0        0.0        0.0        0.0        0.0        0.0        0.0        0.0        0.0      0.6       4.2      19.5      24.9      30.2    407.21
    30     3  2018    99     4     468.9     1.5      0.0    0.0    1.5    0.0      0.0      0.0   -9.90      2.1      1.6     74      0.1      0.0    61      2.2     1.6      73     16.0    2.30     -9     39     13      0      0    11.2    11.2      0     0.02      0.1      0.0      0.0    61    34.7    19.003    43.5    8.272      79        2.55     468.9    468.9    2.30   467.6     923.5     724.2     666.9     502.0     528.7     414.6    0.000     0.000     0.000     0.000     0.000    2.30     0.00    0.00      0   -9.90   -9.00       17.0       18.6       17.7       18.8       17.7       18.1       18.4       18.5       19.0       18.9       31.6       33.0        0.0        0.0        0.0        0.0        0.0        0.0        0.0        0.0        0.0        0.0        0.0        0.0      1.5       3.8      19.1      24.0      28.9    407.21
    31     3  2018   100     4     468.7     0.4      0.0    0.0    0.4    0.0      0.0      0.0   -9.90      2.4      0.6     25      0.0      0.0    59      2.4     0.6      25     15.8    2.30     -9     41     14      0      0     0.6     0.6      0     0.00      0.0      0.0      0.0    59    34.7    19.003    44.4    8.441      78        2.60     468.7    468.7    2.30   467.4     923.5     724.2     670.4     504.2     530.6     414.6    0.000     0.000     0.000     0.000     0.000    2.30     0.00    0.00      0   -9.90   -9.00       16.8       18.6       17.7       18.8       17.7       18.1       18.4       18.5       19.0       18.9       31.6       33.0        0.0        0.0        0.0        0.0        0.0        0.0        0.0        0.0        0.0        0.0        0.0        0.0      0.4       4.1      18.9      23.8      28.7    407.21
     1     4  2018   101     4     468.4     0.2      0.0    0.0    0.2    0.0      0.0      0.0   -9.90      2.5      0.4     17      0.0      0.0   100      2.5     0.4      17     16.4    2.30     -9     -9     15      0     -9     0.0     0.0      0    -9.00      0.0      0.0      0.0   100    34.7    19.003    44.4    8.441      78        2.60     468.4    468.4    2.30   467.2     923.5     724.2     672.7     505.6     531.8     414.6    0.000     0.000     0.000     0.000     0.000    2.30     0.00    0.00      0   -9.90   -9.00       16.6       18.6       17.7       18.8       17.7       18.1       18.4       18.5       19.0       18.9       31.6       33.0        0.0        0.0        0.0        0.0        0.0        0.0        0.0        0.0        0.0        0.0        0.0        0.0      0.2       4.3      18.8      24.6      30.4    407.21
     2     4  2018   102    -9     468.3     0.1      0.0    0.0    0.1    0.0      0.0      0.0   -9.90      1.9      0.3     14      0.0      0.0   100      1.9     0.3      14     15.8    2.30     -9     -9     15      0     -9     0.0     0.0      0    -9.00      0.0      0.0      0.0   100    34.7    19.003    44.4    8.441      78        2.60     468.3    468.3    2.30   467.0     923.5     724.2     672.7     498.4     531.8     414.6    0.000     0.000     0.000     0.000     0.000    2.30     0.00    0.00      0   -9.90   -9.00       16.4       18.6       17.7       18.8       17.7       18.1       18.4       18.5       19.0       18.9       31.6       33.0        0.0        0.0        0.0        0.0        0.0        0.0        0.0        0.0        0.0        0.0        0.0        0.0      0.1       3.3      19.1      23.8      28.4    407.21
     3     4  2018   103    -9     468.1     0.5      0.0    0.0    0.5    0.0      0.0      0.0   -9.90      2.5      0.7     27      0.0      0.0   100      2.5     0.7      27     16.0    2.30     -9     -9     15      0     -9     0.0     0.0      0    -9.00      0.0      0.0      0.0   100    34.7    19.003    44.4    8.441      78        2.60     468.1    468.1    2.30   466.8     923.5     724.2     672.7     504.9     531.8     414.6    0.000     0.000     0.000     0.000     0.000    2.30     0.00    0.00      0   -9.90   -9.00       16.2       18.6       17.7       18.8       17.7       18.1       18.4       18.5       19.0       18.9       31.6       33.0        0.0        0.0        0.0        0.0        0.0        0.0        0.0        0.0        0.0        0.0        0.0        0.0      0.5       4.2      19.4      24.0      28.6    407.21
     4     4  2018   104    -9     468.1     2.6      0.0    0.0    2.6    0.0      0.0      0.0   -9.90      2.6      2.6     98      0.0      0.0   100      2.6     2.6      98     16.4    2.30     -9     -9     15      0     -9     0.0     0.0      0    -9.00      0.0      0.0      0.0   100    34.7    19.003    44.4    8.441      78        2.60     468.1    468.1    2.30   466.8     923.5     724.2     672.7     507.0     531.8     414.6    0.000     0.000     0.000     0.000     0.000    2.30     0.00    0.00      0   -9.90   -9.00       16.2       18.6       17.7       18.8       17.7       18.1       18.4       18.5       19.0       18.9       31.6       33.0        0.0        0.0        0.0        0.0        0.0        0.0        0.0        0.0        0.0        0.0        0.0        0.0      2.6       4.5      19.1      24.4      29.6    407.21
     5     4  2018   105    -9     468.0     1.9      0.0    0.0    1.9    0.0      0.0      0.0   -9.90      2.8      2.0     70      0.0      0.0   100      2.8     2.0      70     16.4    2.30     -9     -9     15      0     -9     0.0     0.0      0    -9.00      0.0      0.0      0.0   100    34.7    19.003    44.4    8.441      78        2.60     468.0    468.0    2.30   466.8     923.5     724.2     672.7     509.2     531.8     414.6    0.000     0.000     0.000     0.000     0.000    2.30     0.00    0.00      0   -9.90   -9.00       16.1       18.6       17.7       18.8       17.7       18.1       18.4       18.5       19.0       18.9       31.6       33.0        0.0        0.0        0.0        0.0        0.0        0.0        0.0        0.0        0.0        0.0        0.0        0.0      1.9       4.8      18.9      25.1      31.3    407.21
     6     4  2018   106    -9     467.8     0.1      0.0    0.0    0.1    0.0      0.0      0.0   -9.90      2.9      0.3     12      0.0      0.0   100      2.9     0.3      12     15.9    2.30     -9     -9     15      0     -9     0.0     0.0      0    -9.00      0.0      0.0      0.0   100    34.7    19.003    44.4    8.441      78        2.60     467.8    467.8    2.30   466.5     923.5     724.2     672.7     509.9     531.8     414.6    0.000     0.000     0.000     0.000     0.000    2.30     0.00    0.00      0   -9.90   -9.00       15.9       18.6       17.7       18.8       17.7       18.1       18.4       18.5       19.0       18.9       31.6       33.0        0.0        0.0        0.0        0.0        0.0        0.0        0.0        0.0        0.0        0.0        0.0        0.0      0.1       4.9      17.9      23.9      30.0    407.21
