AquaCrop 6.0 (March 2017) - Output created on (date) : 10/16/2019   at (time) : 2:52:38 PM

   Run:   1
   Day Month  Year   DAP Stage   WC(2.30)   Rain     Irri   Surf   Infilt   RO    Drain       CR    Zgwt       Ex       E     E/Ex     Trx       Tr  Tr/Trx    ETx      ET  ET/ETx      GD       Z     StExp  StSto  StSen StSalt StWeed   CC      CCw     StTr  Kc(Tr)     Trx       Tr      TrW  Tr/Trx   WP    Biomass     HI  YieldPart  Brelative    WPet  WC(2.30) Wr(2.30)     Z       Wr    Wr(SAT)    Wr(FC)   Wr(exp)   Wr(sto)   Wr(sen)   Wr(PWP)    SaltIn    SaltOut   SaltUp   Salt(2.30)  SaltZ     Z       ECe    ECsw   StSalt  Zgwt    ECgw       WC01       WC 2       WC 3       WC 4       WC 5       WC 6       WC 7       WC 8       WC 9       WC10       WC11       WC12      ECe01      ECe 2      ECe 3      ECe 4      ECe 5      ECe 6      ECe 7      ECe 8      ECe 9      ECe10      ECe11      ECe12     Rain       ETo      Tmin      Tavg      Tmax      CO2
                                      mm      mm       mm     mm     mm     mm       mm       mm      m        mm       mm     %        mm       mm    %        mm      mm       %    °C-day     m       %      %      %      %      %      %       %       %       -        mm       mm       mm    %     g/m2    ton/ha      %    ton/ha       %       kg/m3      mm       mm       m       mm        mm        mm        mm        mm        mm         mm    ton/ha    ton/ha    ton/ha    ton/ha    ton/ha     m      dS/m    dS/m      %     m      dS/m       0.05       0.17       0.32       0.47       0.63       0.80       1.00       1.20       1.43       1.68       1.93       2.17       0.05       0.17       0.32       0.47       0.63       0.80       1.00       1.20       1.43       1.68       1.93       2.17       mm        mm       °C        °C        °C       ppm
    22     3  1988     1     1     721.2     0.0      0.0    0.0    0.0    0.0      0.0      0.0   -9.90      5.4      4.2     79      0.0      0.0   100      5.4     4.2      79     16.5    0.30     -9     -9     -9      0     -9     0.0     0.0      0    -9.00      0.0      0.0      0.0   100     0.0     0.000    -9.9    0.000      -9        0.00     721.2    721.2    0.30    92.9     125.4      97.2      91.1      67.0      67.1      53.6    0.000     0.000     0.000     0.000     0.000    0.30     0.00    0.00      0   -9.90   -9.00       29.6       34.0       33.0       33.0       33.0       33.0       33.0       33.0       33.0       33.0       33.0       33.0        0.0        0.0        0.0        0.0        0.0        0.0        0.0        0.0        0.0        0.0        0.0        0.0      0.0       4.9      19.0      25.2      31.4    351.57
    23     3  1988     2     1     716.9     0.1      0.0    0.0    0.1    0.0      0.0      0.0   -9.90      5.9      4.5     75      0.0      0.0   100      5.9     4.5      75     16.6    0.30     -9     -9     -9      0     -9     0.0     0.0      0    -9.00      0.0      0.0      0.0   100     0.0     0.000    -9.9    0.000      -9        0.00     716.9    716.9    0.30    88.6     125.4      97.2      91.1      67.5      67.1      53.6    0.000     0.000     0.000     0.000     0.000    0.30     0.00    0.00      0   -9.90   -9.00       25.1       34.0       33.0       33.0       33.0       33.0       33.0       33.0       33.0       33.0       33.0       33.0        0.0        0.0        0.0        0.0        0.0        0.0        0.0        0.0        0.0        0.0        0.0        0.0      0.1       5.4      19.1      25.8      32.4    351.57
    24     3  1988     3     1     714.3     0.0      0.0    0.0    0.0    0.0      0.0      0.0   -9.90      5.5      2.6     48      0.0      0.0   100      5.5     2.6      48     16.6    0.30     -9     -9     -9      0     -9     0.0     0.0      0    -9.00      0.0      0.0      0.0   100     0.0     0.000    -9.9    0.000      -9        0.00     714.3    714.3    0.30    86.0     125.4      97.2      91.1      67.1      67.1      53.6    0.000     0.000     0.000     0.000     0.000    0.30     0.00    0.00      0   -9.90   -9.00       22.4       34.0       33.0       33.0       33.0       33.0       33.0       33.0       33.0       33.0       33.0       33.0        0.0        0.0        0.0        0.0        0.0        0.0        0.0        0.0        0.0        0.0        0.0        0.0      0.0       5.0      19.3      25.1      30.9    351.57
    25     3  1988     4     1     710.7     0.1      0.0    0.0    0.1    0.0      0.0      0.0   -9.90      5.9      3.7     63      0.0      0.0   100      5.9     3.7      63     16.4    0.31     -9     -9     -9      0     -9     0.0     0.0      0    -9.00      0.0      0.0      0.0   100     0.0     0.000    -9.9    0.000      -9        0.00     710.7    710.7    0.31    85.3     129.2     100.2      93.9      69.6      69.2      55.3    0.000     0.000     0.000     0.000     0.000    0.31     0.00    0.00      0   -9.90   -9.00       18.6       34.0       33.0       33.0       33.0       33.0       33.0       33.0       33.0       33.0       33.0       33.0        0.0        0.0        0.0        0.0        0.0        0.0        0.0        0.0        0.0        0.0        0.0        0.0      0.1       5.4      18.9      25.7      32.5    351.57
    26     3  1988     5     1     708.3     0.0      0.0    0.0    0.0    0.0      0.0      0.0   -9.90      6.1      2.3     38      0.1      0.1   100      6.2     2.4      39     16.2    0.35     -9      0      0      0      0     0.5     0.5      0     0.01      0.1      0.1      0.1   100    33.2     0.003    -9.9    0.000     100        0.00     708.3    708.3    0.35    97.0     147.1     114.2     108.2      79.9      79.9      63.4    0.000     0.000     0.000     0.000     0.000    0.35     0.00    0.00      0   -9.90   -9.00       16.2       34.0       33.0       33.0       33.0       33.0       33.0       33.0       33.0       33.0       33.0       33.0        0.0        0.0        0.0        0.0        0.0        0.0        0.0        0.0        0.0        0.0        0.0        0.0      0.0       5.6      18.4      25.8      33.1    351.57
    27     3  1988     6     2     706.6     0.0      0.0    0.0    0.0    0.0      0.0      0.0   -9.90      5.6      1.5     28      0.1      0.1   100      5.6     1.6      29     16.4    0.40     -9      0      0      0      0     0.6     0.6      0     0.01      0.1      0.1      0.1   100    33.2     0.007    -9.9    0.000     100        0.00     706.6    706.6    0.40   108.4     163.6     127.2     119.5      88.5      88.5      70.9    0.000     0.000     0.000     0.000     0.000    0.40     0.00    0.00      0   -9.90   -9.00       14.6       33.9       33.0       33.0       33.0       33.0       33.0       33.0       33.0       33.0       33.0       33.0        0.0        0.0        0.0        0.0        0.0        0.0        0.0        0.0        0.0        0.0        0.0        0.0      0.0       5.1      18.9      25.4      31.8    351.57
    28     3  1988     7     2     705.5     0.6      0.0    0.0    0.6    0.0      0.0      0.0   -9.90      5.5      1.7     31      0.1      0.1   100      5.6     1.8      32     16.7    0.43      7      0      0      0      0     0.7     0.7      0     0.01      0.1      0.1      0.1   100    33.2     0.011    -9.9    0.000      99        0.00     705.5    705.5    0.43   119.6     179.4     139.6     131.2      97.2      97.2      78.0    0.000     0.000     0.000     0.000     0.000    0.43     0.00    0.00      0   -9.90   -9.00       13.5       33.9       33.0       33.0       33.0       33.0       33.0       33.0       33.0       33.0       33.0       33.0        0.0        0.0        0.0        0.0        0.0        0.0        0.0        0.0        0.0        0.0        0.0        0.0      0.6       5.1      19.4      25.2      31.0    351.57
    29     3  1988     8     2     704.5     0.4      0.0    0.0    0.4    0.0      0.0      0.0   -9.90      5.3      1.3     25      0.1      0.1   100      5.4     1.4      26     16.8    0.47      7      0      0      0      0     0.9     0.9      0     0.02      0.1      0.1      0.1   100    33.2     0.017    -9.9    0.000      99        0.00     704.5    704.5    0.47   130.4     194.4     151.4     141.8     105.3     105.3      84.8    0.000     0.000     0.000     0.000     0.000    0.47     0.00    0.00      0   -9.90   -9.00       12.5       33.8       33.0       33.0       33.0       33.0       33.0       33.0       33.0       33.0       33.0       33.0        0.0        0.0        0.0        0.0        0.0        0.0        0.0        0.0        0.0        0.0        0.0        0.0      0.4       4.9      19.6      25.4      31.1    351.57
    30     3  1988     9     2     703.6     0.8      0.0    0.0    0.8    0.0      0.0      0.0   -9.90      5.7      1.6     28      0.1      0.1   100      5.8     1.7      29     16.5    0.51      7      0      0      0      0     1.1     1.1      0     0.02      0.1      0.1      0.1   100    33.2     0.023    -9.9    0.000      98        0.00     703.6    703.6    0.51   140.6     208.6     162.5     153.3     113.8     113.8      91.2    0.000     0.000     0.000     0.000     0.000    0.51     0.00    0.00      0   -9.90   -9.00       11.7       33.7       33.0       33.0       33.0       33.0       33.0       33.0       33.0       33.0       33.0       33.0        0.0        0.0        0.0        0.0        0.0        0.0        0.0        0.0        0.0        0.0        0.0        0.0      0.8       5.3      19.0      26.1      33.1    351.57
    31     3  1988    10     2     702.6     0.2      0.0    0.0    0.2    0.0      0.0      0.0   -9.90      6.0      1.0     17      0.1      0.1   100      6.2     1.1      19     16.4    0.54      8      0      0      0      0     1.3     1.3      0     0.02      0.1      0.1      0.1   100    33.2     0.031    -9.9    0.000      97        0.00     702.6    702.6    0.54   150.4     222.2     173.2     164.3     121.9     121.9      97.4    0.000     0.000     0.000     0.000     0.000    0.54     0.00    0.00      0   -9.90   -9.00       10.9       33.7       33.0       33.0       33.0       33.0       33.0       33.0       33.0       33.0       33.0       33.0        0.0        0.0        0.0        0.0        0.0        0.0        0.0        0.0        0.0        0.0        0.0        0.0      0.2       5.6      18.9      25.9      33.0    351.57
     1     4  1988    11     2     701.8     0.1      0.0    0.0    0.1    0.0      0.0      0.0   -9.90      5.6      0.8     14      0.2      0.2   100      5.7     0.9      16     16.6    0.58      7      0      0      0      0     1.6     1.6      0     0.03      0.2      0.2      0.2   100    33.2     0.041    -9.9    0.000      96        0.00     701.8    701.8    0.58   160.0     235.5     183.7     173.0     128.6     128.6     103.4    0.000     0.000     0.000     0.000     0.000    0.58     0.00    0.00      0   -9.90   -9.00       10.2       33.5       33.0       33.0       33.0       33.0       33.0       33.0       33.0       33.0       33.0       33.0        0.0        0.0        0.0        0.0        0.0        0.0        0.0        0.0        0.0        0.0        0.0        0.0      0.1       5.2      19.1      25.8      32.4    351.57
     2     4  1988    12     2     701.1     0.3      0.0    0.0    0.3    0.0      0.0      0.0   -9.90      5.3      0.8     16      0.2      0.2   100      5.5     1.0      18     16.8    0.61      6      0      0      0      0     2.0     2.0      0     0.04      0.2      0.2      0.2   100    33.2     0.052    -9.9    0.000      95        0.00     701.1    701.1    0.61   169.6     248.6     194.0     182.1     135.6     135.6     109.3    0.000     0.000     0.000     0.000     0.000    0.61     0.00    0.00      0   -9.90   -9.00        9.6       33.4       33.0       33.0       33.0       33.0       33.0       33.0       33.0       33.0       33.0       33.0        0.0        0.0        0.0        0.0        0.0        0.0        0.0        0.0        0.0        0.0        0.0        0.0      0.3       5.0      19.6      25.9      32.2    351.57
     3     4  1988    13     2     700.4     0.5      0.0    0.0    0.5    0.0      0.0      0.0   -9.90      5.4      1.0     18      0.2      0.2   100      5.6     1.2      21     16.5    0.64      5      0      0      0      0     2.4     2.4      0     0.04      0.2      0.2      0.2   100    33.2     0.067    -9.9    0.000      94        0.00     700.4    700.4    0.64   178.8     261.2     203.9     191.8     142.8     142.8     115.0    0.000     0.000     0.000     0.000     0.000    0.64     0.00    0.00      0   -9.90   -9.00        9.1       33.3       33.0       33.0       33.0       33.0       33.0       33.0       33.0       33.0       33.0       33.0        0.0        0.0        0.0        0.0        0.0        0.0        0.0        0.0        0.0        0.0        0.0        0.0      0.5       5.1      19.0      25.3      31.6    351.57
     4     4  1988    14     2     699.7     0.1      0.0    0.0    0.1    0.0      0.0      0.0   -9.90      5.3      0.6     11      0.3      0.3   100      5.6     0.8      15     16.9    0.67      5      0      0      0      0     2.9     2.9      0     0.05      0.3      0.3      0.3   100    33.2     0.084    -9.9    0.000      93        0.00     699.7    699.7    0.67   188.0     273.8     213.8     201.1     149.8     149.8     120.7    0.000     0.000     0.000     0.000     0.000    0.67     0.00    0.00      0   -9.90   -9.00        9.0       32.8       33.0       33.0       33.0       33.0       33.0       33.0       33.0       33.0       33.0       33.0        0.0        0.0        0.0        0.0        0.0        0.0        0.0        0.0        0.0        0.0        0.0        0.0      0.1       5.1      19.8      25.9      32.0    351.57
     5     4  1988    15     2     699.0     1.6      0.0    0.0    1.6    0.0      0.0      0.0   -9.90      5.4      1.9     36      0.3      0.3   100      5.7     2.3      39     16.8    0.70      5      0      0      0      0     3.6     3.6      0     0.06      0.3      0.3      0.3   100    33.2     0.105    -9.9    0.000      93        0.00     699.0    699.0    0.70   197.0     286.1     223.4     210.6     156.8     156.8     126.3    0.000     0.000     0.000     0.000     0.000    0.70     0.00    0.00      0   -9.90   -9.00        9.0       32.4       33.0       33.0       33.0       33.0       33.0       33.0       33.0       33.0       33.0       33.0        0.0        0.0        0.0        0.0        0.0        0.0        0.0        0.0        0.0        0.0        0.0        0.0      1.6       5.2      19.5      25.9      32.2    351.57
     6     4  1988    16     2     698.3     0.9      0.0    0.0    0.9    0.0      0.0      0.0   -9.90      5.0      1.2     25      0.4      0.4   100      5.4     1.6      30     16.6    0.73      4      0      0      0      0     4.4     4.4      0     0.08      0.4      0.4      0.4   100    33.2     0.130    -9.9    0.000      92        0.00     698.3    698.3    0.73   205.7     298.1     232.8     218.3     162.8     162.8     131.7    0.000     0.000     0.000     0.000     0.000    0.73     0.00    0.00      0   -9.90   -9.00        9.0       31.9       33.0       33.0       33.0       33.0       33.0       33.0       33.0       33.0       33.0       33.0        0.0        0.0        0.0        0.0        0.0        0.0        0.0        0.0        0.0        0.0        0.0        0.0      0.9       4.9      19.5      24.6      29.8    351.57
     7     4  1988    17     2     697.6     0.4      0.0    0.0    0.4    0.0      0.0      0.0   -9.90      4.2      0.7     17      0.4      0.4   100      4.6     1.1      24     15.9    0.76      3      0      0      0      0     5.3     5.3      0     0.09      0.4      0.4      0.4   100    33.2     0.161    -9.9    0.000      91        0.00     697.6    697.6    0.76   213.8     309.3     241.6     223.8     167.3     167.3     136.8    0.000     0.000     0.000     0.000     0.000    0.76     0.00    0.00      0   -9.90   -9.00        9.0       31.4       33.0       33.0       33.0       33.0       33.0       33.0       33.0       33.0       33.0       33.0        0.0        0.0        0.0        0.0        0.0        0.0        0.0        0.0        0.0        0.0        0.0        0.0      0.4       4.2      19.7      23.9      28.1    351.57
     8     4  1988    18     2     696.7     0.1      0.0    0.0    0.1    0.0      0.0      0.0   -9.90      4.8      0.5      9      0.6      0.6   100      5.4     1.0      19     16.8    0.79      4      0      0      0      0     6.5     6.5      0     0.11      0.6      0.6      0.6   100    33.2     0.199    -9.9    0.000      90        0.00     696.7    696.7    0.79   222.1     321.0     250.8     235.2     175.5     175.5     142.1    0.000     0.000     0.000     0.000     0.000    0.79     0.00    0.00      0   -9.90   -9.00        9.0       30.8       33.0       33.0       33.0       33.0       33.0       33.0       33.0       33.0       33.0       33.0        0.0        0.0        0.0        0.0        0.0        0.0        0.0        0.0        0.0        0.0        0.0        0.0      0.1       4.9      19.6      25.8      31.9    351.57
     9     4  1988    19     2     696.0     2.4      0.0    0.0    2.4    0.0      0.0      0.0   -9.90      4.4      2.5     58      0.6      0.6   100      5.0     3.2      63     16.9    0.82      3      0      0      0      0     7.9     7.9      0     0.14      0.6      0.6      0.6   100    33.2     0.244    -9.9    0.000      90        0.00     696.0    696.0    0.82   230.4     332.6     259.9     242.5     181.2     181.2     147.3    0.000     0.000     0.000     0.000     0.000    0.82     0.00    0.00      0   -9.90   -9.00        9.0       30.2       33.0       33.0       33.0       33.0       33.0       33.0       33.0       33.0       33.0       33.0        0.0        0.0        0.0        0.0        0.0        0.0        0.0        0.0        0.0        0.0        0.0        0.0      2.4       4.6      19.9      25.0      30.1    351.57
    10     4  1988    20     2     695.0     1.1      0.0    0.0    1.1    0.0      0.0      0.0   -9.90      4.1      1.3     32      0.7      0.7   100      4.8     2.0      42     16.4    0.85      3      0      0      0      0     9.7     9.7      0     0.17      0.7      0.7      0.7   100    33.2     0.299    -9.9    0.000      89        0.00     695.0    695.0    0.85   238.2     343.6     268.6     249.7     186.8     186.8     152.3    0.000     0.000     0.000     0.000     0.000    0.85     0.00    0.00      0   -9.90   -9.00        9.0       29.6       33.0       33.0       33.0       33.0       33.0       33.0       33.0       33.0       33.0       33.0        0.0        0.0        0.0        0.0        0.0        0.0        0.0        0.0        0.0        0.0        0.0        0.0      1.1       4.4      19.7      24.4      29.0    351.57
    11     4  1988    21     2     694.1     1.4      0.0    0.0    1.4    0.0      0.0      0.0   -9.90      3.4      1.5     45      0.8      0.8   100      4.1     2.3      55     15.8    0.87      2      0      0      0      0    11.7    11.7      0     0.20      0.8      0.8      0.8   100    33.2     0.365    -9.9    0.000      89        0.00     694.1    694.1    0.87   245.5     354.1     276.9     254.7     190.9     190.9     157.1    0.000     0.000     0.000     0.000     0.000    0.87     0.00    0.00      0   -9.90   -9.00        9.0       29.0       33.0       33.0       33.0       33.0       33.0       33.0       33.0       33.0       33.0       33.0        0.0        0.0        0.0        0.0        0.0        0.0        0.0        0.0        0.0        0.0        0.0        0.0      1.4       3.8      18.9      23.8      28.6    351.57
    12     4  1988    22     2     693.0     1.7      0.0    0.0    1.7    0.0      0.0      0.0   -9.90      3.6      1.8     51      1.0      1.0   100      4.6     2.8      62     16.0    0.90      3      0      0      0      0    14.3    14.3      0     0.24      1.0      1.0      1.0   100    33.2     0.444    -9.9    0.000      88        0.00     693.0    693.0    0.90   252.7     364.7     285.2     264.2     197.8     197.8     161.8    0.000     0.000     0.000     0.000     0.000    0.90     0.00    0.00      0   -9.90   -9.00        9.0       28.2       33.0       33.0       33.0       33.0       33.0       33.0       33.0       33.0       33.0       33.0        0.0        0.0        0.0        0.0        0.0        0.0        0.0        0.0        0.0        0.0        0.0        0.0      1.7       4.2      19.3      24.0      28.7    351.57
    13     4  1988    23     2     691.7     0.2      0.0    0.0    0.2    0.0      0.0      0.0   -9.90      3.1      0.4     13      1.1      1.1   100      4.2     1.5      36     16.7    0.93      3      0      0      0      0    17.5    17.5      0     0.29      1.1      1.1      1.1   100    33.2     0.538    -9.9    0.000      88        0.00     691.7    691.7    0.93   259.9     375.5     293.7     270.7     202.9     202.9     166.8    0.000     0.000     0.000     0.000     0.000    0.93     0.00    0.00      0   -9.90   -9.00        9.0       27.3       33.0       33.0       33.0       33.0       33.0       33.0       33.0       33.0       33.0       33.0        0.0        0.0        0.0        0.0        0.0        0.0        0.0        0.0        0.0        0.0        0.0        0.0      0.2       3.9      19.4      24.9      30.3    351.57
    14     4  1988    24     2     689.9     0.3      0.0    0.0    0.3    0.0      0.0      0.0   -9.90      3.4      0.5     15      1.6      1.6   100      5.0     2.1      41     16.9    0.95      4      0      0      0      0    21.4    21.4      0     0.34      1.6      1.6      1.6   100    33.2     0.652    -9.9    0.000      88        0.00     689.9    689.9    0.95   266.7     386.4     302.2     282.0     210.9     210.9     171.7    0.000     0.000     0.000     0.000     0.000    0.95     0.00    0.00      0   -9.90   -9.00        9.0       26.0       33.0       33.0       33.0       33.0       33.0       33.0       33.0       33.0       33.0       33.0        0.0        0.0        0.0        0.0        0.0        0.0        0.0        0.0        0.0        0.0        0.0        0.0      0.3       4.6      19.7      25.0      30.4    351.57
    15     4  1988    25     2     687.8     0.4      0.0    0.0    0.4    0.0      0.0      0.0   -9.90      3.2      0.6     18      2.0      2.0   100      5.2     2.5      49     16.9    0.98      5      0      0      0      0    26.2    26.2      0     0.41      2.0      2.0      2.0   100    33.2     0.787    -9.9    0.000      87        0.00     687.8    687.8    0.98   273.0     397.1     310.7     290.9     217.5     217.5     176.5    0.000     0.000     0.000     0.000     0.000    0.98     0.00    0.00      0   -9.90   -9.00        9.0       24.5       33.0       33.0       33.0       33.0       33.0       33.0       33.0       33.0       33.0       33.0        0.0        0.0        0.0        0.0        0.0        0.0        0.0        0.0        0.0        0.0        0.0        0.0      0.4       4.8      19.7      25.3      30.8    351.57
    16     4  1988    26     2     685.4     0.1      0.0    0.0    0.1    0.0      0.0      0.0   -9.90      2.9      0.2      9      2.3      2.3   100      5.2     2.5      49     16.4    1.01      5      0      0      0      0    31.8    31.8      0     0.48      2.3      2.3      2.3   100    33.2     0.946    -9.9    0.000      87        0.00     685.4    685.4    1.01   278.7     407.5     318.8     298.5     223.2     223.2     181.2    0.000     0.000     0.000     0.000     0.000    1.01     0.00    0.00      0   -9.90   -9.00        9.0       22.8       33.0       33.0       33.0       33.0       33.0       33.0       33.0       33.0       33.0       33.0        0.0        0.0        0.0        0.0        0.0        0.0        0.0        0.0        0.0        0.0        0.0        0.0      0.1       4.8      18.8      25.1      31.5    351.57
    17     4  1988    27     2     682.5     0.0      0.0    0.0    0.0    0.0      0.0      0.0   -9.90      2.5      0.1      5      2.7      2.7   100      5.3     2.8      54     15.9    1.03      6      0      0      0      0    38.3    38.3      0     0.56      2.7      2.7      2.7   100    33.2     1.130    -9.9    0.000      87        0.00     682.5    682.5    1.03   283.7     417.4     326.6     306.4     229.1     229.1     185.7    0.000     0.000     0.000     0.000     0.000    1.03     0.00    0.00      0   -9.90   -9.00        9.0       20.8       33.0       33.0       33.0       33.0       33.0       33.0       33.0       33.0       33.0       33.0        0.0        0.0        0.0        0.0        0.0        0.0        0.0        0.0        0.0        0.0        0.0        0.0      0.0       4.9      17.9      24.6      31.3    351.57
    18     4  1988    28     2     679.3     0.6      0.0    0.0    0.6    0.0      0.0      0.0   -9.90      2.1      0.7     31      3.1      3.1   100      5.2     3.8      73     16.1    1.06      7      0      0      0      0    46.3    46.3      0     0.64      3.1      3.1      3.1   100    33.2     1.344    -9.9    0.000      87        0.00     679.3    679.3    1.06   288.3     427.4     334.4     313.7     234.6     234.6     190.2    0.000     0.000     0.000     0.000     0.000    1.06     0.00    0.00      0   -9.90   -9.00        9.0       18.6       33.0       33.0       33.0       33.0       33.0       33.0       33.0       33.0       33.0       33.0        0.0        0.0        0.0        0.0        0.0        0.0        0.0        0.0        0.0        0.0        0.0        0.0      0.6       4.9      18.2      24.5      30.8    351.57
    19     4  1988    29     2     675.9     0.1      0.0    0.0    0.1    0.0      0.0      0.0   -9.90      1.6      0.1      9      3.3      3.3   100      4.9     3.5      71     16.1    1.08      7      0      0      0      0    54.7    54.7      0     0.73      3.3      3.3      3.3   100    33.2     1.584    -9.9    0.000      87        0.00     675.9    675.9    1.08   292.7     437.3     342.2     319.3     239.1     239.1     194.7    0.000     0.000     0.000     0.000     0.000    1.08     0.00    0.00      0   -9.90   -9.00        9.0       18.6       30.7       33.0       33.0       33.0       33.0       33.0       33.0       33.0       33.0       33.0        0.0        0.0        0.0        0.0        0.0        0.0        0.0        0.0        0.0        0.0        0.0        0.0      0.1       4.6      18.3      24.2      30.1    351.57
    20     4  1988    30     2     672.1     0.7      0.0    0.0    0.7    0.0      0.0      0.0   -9.90      1.3      0.7     55      3.8      3.8   100      5.1     4.5      88     16.0    1.10      8      0      0      0      0    61.6    61.6      0     0.79      3.8      3.8      3.8   100    33.2     1.846    -9.9    0.000      88        0.00     672.1    672.1    1.10   296.6     447.1     349.9     327.6     245.2     245.2     199.1    0.000     0.000     0.000     0.000     0.000    1.10     0.00    0.00      0   -9.90   -9.00        9.0       18.6       28.0       33.0       33.0       33.0       33.0       33.0       33.0       33.0       33.0       33.0        0.0        0.0        0.0        0.0        0.0        0.0        0.0        0.0        0.0        0.0        0.0        0.0      0.7       4.8      18.2      24.0      29.9    351.57
    21     4  1988    31     2     668.1     0.4      0.0    0.0    0.4    0.0      0.0      0.0   -9.90      1.1      0.4     39      4.0      4.0   100      5.1     4.4      87     15.4    1.13     10      0      0      0      0    67.1    67.1      0     0.83      4.0      4.0      4.0   100    33.2     2.123    -9.9    0.000      89        0.00     668.1    668.1    1.13   299.9     456.4     357.2     334.5     250.3     250.3     203.3    0.000     0.000     0.000     0.000     0.000    1.13     0.00    0.00      0   -9.90   -9.00        9.0       18.5       25.2       33.0       33.0       33.0       33.0       33.0       33.0       33.0       33.0       33.0        0.0        0.0        0.0        0.0        0.0        0.0        0.0        0.0        0.0        0.0        0.0        0.0      0.4       4.8      17.7      23.4      29.2    351.57
    22     4  1988    32     2     664.3     1.4      0.0    0.0    1.4    0.0      0.0      0.0   -9.90      0.9      0.9    100      4.3      4.3   100      5.2     5.2     100     15.8    1.15     11      0      0      0      0    71.7    71.7      0     0.87      4.3      4.3      4.3   100    33.2     2.412    -9.9    0.000      89        0.00     664.3    664.3    1.15   303.5     465.8     364.7     342.1     255.9     255.9     207.6    0.000     0.000     0.000     0.000     0.000    1.15     0.00    0.00      0   -9.90   -9.00        9.5       18.5       22.2       33.0       33.0       33.0       33.0       33.0       33.0       33.0       33.0       33.0        0.0        0.0        0.0        0.0        0.0        0.0        0.0        0.0        0.0        0.0        0.0        0.0      1.4       4.9      17.8      23.8      29.8    351.57
    23     4  1988    33     2     660.4     0.4      0.0    0.0    0.4    0.0      0.0      0.0   -9.90      0.7      0.4     59      4.0      4.0   100      4.7     4.4      94     15.4    1.17     12      0      0      0      0    75.5    75.5      0     0.90      4.0      4.0      4.0   100    33.2     2.712    -9.9    0.000      90        0.00     660.4    660.4    1.17   306.7     475.0     371.8     345.8     259.2     259.2     211.7    0.000     0.000     0.000     0.000     0.000    1.17     0.00    0.00      0   -9.90   -9.00        9.5       18.5       19.4       33.0       33.0       33.0       33.0       33.0       33.0       33.0       33.0       33.0        0.0        0.0        0.0        0.0        0.0        0.0        0.0        0.0        0.0        0.0        0.0        0.0      0.4       4.4      17.5      23.4      29.3    351.57
    24     4  1988    34     2     656.6     1.1      0.0    0.0    1.1    0.0      0.0      0.0   -9.90      0.6      0.6    100      4.3      4.3   100      4.9     4.9     100     15.8    1.20     13      0      0      0      0    78.7    78.7      0     0.92      4.3      4.3      4.3   100    33.2     3.019    -9.9    0.000      91        0.00     656.6    656.6    1.20   310.3     484.3     379.2     353.9     265.0     265.0     216.0    0.000     0.000     0.000     0.000     0.000    1.20     0.00    0.00      0   -9.90   -9.00       10.0       18.5       17.5       31.9       33.0       33.0       33.0       33.0       33.0       33.0       33.0       33.0        0.0        0.0        0.0        0.0        0.0        0.0        0.0        0.0        0.0        0.0        0.0        0.0      1.1       4.6      18.5      23.8      29.1    351.57
    25     4  1988    35     2     652.7     0.3      0.0    0.0    0.3    0.0      0.0      0.0   -9.90      0.5      0.3     67      3.9      3.9   100      4.3     4.2      97     15.6    1.22     14      0      0      0      0    81.3    81.3      0     0.94      3.9      3.9      3.9   100    33.2     3.332    -9.9    0.000      91        0.00     652.7    652.7    1.22   313.6     493.5     386.4     357.5     268.2     268.2     220.1    0.000     0.000     0.000     0.000     0.000    1.22     0.00    0.00      0   -9.90   -9.00       10.0       18.5       17.5       29.2       33.0       33.0       33.0       33.0       33.0       33.0       33.0       33.0        0.0        0.0        0.0        0.0        0.0        0.0        0.0        0.0        0.0        0.0        0.0        0.0      0.3       4.1      18.1      23.6      29.2    351.57
    26     4  1988    36     2     648.2     0.3      0.0    0.0    0.3    0.0      0.0      0.0   -9.90      0.4      0.3     68      4.5      4.5   100      5.0     4.8      97     15.6    1.24     18      0      0      0      0    83.5    83.5      0     0.96      4.5      4.5      4.5   100    33.2     3.650    -9.9    0.000      92        0.00     648.2    648.2    1.24   316.2     502.6     393.5     367.9     275.5     275.5     224.2    0.000     0.000     0.000     0.000     0.000    1.24     0.00    0.00      0   -9.90   -9.00       10.0       18.5       17.5       26.1       33.0       33.0       33.0       33.0       33.0       33.0       33.0       33.0        0.0        0.0        0.0        0.0        0.0        0.0        0.0        0.0        0.0        0.0        0.0        0.0      0.3       4.7      17.6      23.6      29.6    351.57
    27     4  1988    37     2     643.9     0.5      0.0    0.0    0.5    0.0      0.0      0.0   -9.90      0.4      0.4    100      4.5      4.5   100      4.8     4.8     100     16.0    1.27     19      0      0      0      0    85.3    85.3      0     0.97      4.5      4.5      4.5   100    33.2     3.973    -9.9    0.000      92        0.00     643.9    643.9    1.27   319.2     511.8     400.8     374.0     280.2     280.2     228.4    0.000     0.000     0.000     0.000     0.000    1.27     0.00    0.00      0   -9.90   -9.00       10.1       18.5       17.5       22.9       33.0       33.0       33.0       33.0       33.0       33.0       33.0       33.0        0.0        0.0        0.0        0.0        0.0        0.0        0.0        0.0        0.0        0.0        0.0        0.0      0.5       4.6      18.0      24.1      30.1    351.57
    28     4  1988    38     2     639.6     0.9      0.0    0.0    0.9    0.0      0.0      0.0   -9.90      0.3      0.3    100      4.8      4.8   100      5.2     5.2     100     16.1    1.29     23      0      0      0      0    86.8    86.8      0     0.98      4.8      4.8      4.8   100    33.2     4.300    -9.9    0.000      92        0.00     639.6    639.6    1.29   322.1     521.0     408.0     382.8     286.6     286.6     232.6    0.000     0.000     0.000     0.000     0.000    1.29     0.00    0.00      0   -9.90   -9.00       10.7       18.5       17.5       19.6       33.0       33.0       33.0       33.0       33.0       33.0       33.0       33.0        0.0        0.0        0.0        0.0        0.0        0.0        0.0        0.0        0.0        0.0        0.0        0.0      0.9       4.9      18.1      24.3      30.5    351.57
    29     4  1988    39     2     635.0     0.2      0.0    0.0    0.2    0.0      0.0      0.0   -9.90      0.3      0.2     71      4.6      4.6   100      4.8     4.8      98     16.1    1.31     24      0      0      0      0    88.0    88.0      0     0.99      4.6      4.6      4.6   100    33.2     4.629    -9.9    0.000      93        0.00     635.0    635.0    1.31   324.8     530.2     415.2     387.5     290.4     290.4     236.7    0.000     0.000     0.000     0.000     0.000    1.31     0.00    0.00      0   -9.90   -9.00       10.7       18.5       17.5       17.6       31.8       33.0       33.0       33.0       33.0       33.0       33.0       33.0        0.0        0.0        0.0        0.0        0.0        0.0        0.0        0.0        0.0        0.0        0.0        0.0      0.2       4.6      18.1      24.5      30.9    351.57
    30     4  1988    40     2     630.2     0.0      0.0    0.0    0.0    0.0      0.0      0.0   -9.90      0.3      0.0      4      4.8      4.8   100      5.1     4.8      95     16.1    1.34     28      0      0      0      0    89.1    89.1      0     1.00      4.8      4.8      4.8   100    33.2     4.960    -9.9    0.000      93        0.00     630.2    630.2    1.34   327.2     539.3     422.4     395.6     296.3     296.3     240.8    0.000     0.000     0.000     0.000     0.000    1.34     0.00    0.00      0   -9.90   -9.00       10.7       18.5       17.5       17.6       28.7       32.8       33.0       33.0       33.0       33.0       33.0       33.0        0.0        0.0        0.0        0.0        0.0        0.0        0.0        0.0        0.0        0.0        0.0        0.0      0.0       4.8      18.2      25.3      32.3    351.57
     1     5  1988    41     2     625.4     0.0      0.0    0.0    0.0    0.0      0.0      0.0   -9.90      0.2      0.0      4      4.8      4.8   100      5.1     4.8      96     16.0    1.36     31      0      0      0      0    89.9    89.9      0     1.00      4.8      4.8      4.8   100    33.2     5.294    -9.9    0.000      93        0.00     625.4    625.4    1.36   329.4     548.3     429.5     402.2     301.3     301.3     244.9    0.000     0.000     0.000     0.000     0.000    1.36     0.00    0.00      0   -9.90   -9.00       10.7       18.5       17.5       17.6       25.6       32.6       33.0       33.0       33.0       33.0       33.0       33.0        0.0        0.0        0.0        0.0        0.0        0.0        0.0        0.0        0.0        0.0        0.0        0.0      0.0       4.8      18.0      25.1      32.2    351.57
     2     5  1988    42     2     620.5     0.3      0.0    0.0    0.3    0.0      0.0      0.0   -9.90      0.2      0.2    100      5.0      5.0   100      5.3     5.3     100     15.9    1.38     36      0      0      0      0    90.6    90.6      0     1.01      5.0      5.0      5.0   100    33.2     5.628    -9.9    0.000      94        0.00     620.5    620.5    1.38   331.4     557.2     436.5     410.2     307.1     307.1     248.9    0.000     0.000     0.000     0.000     0.000    1.38     0.00    0.00      0   -9.90   -9.00       10.8       18.5       17.5       17.6       22.4       32.3       33.0       33.0       33.0       33.0       33.0       33.0        0.0        0.0        0.0        0.0        0.0        0.0        0.0        0.0        0.0        0.0        0.0        0.0      0.3       5.0      17.7      24.4      31.1    351.57
     3     5  1988    43     2     616.0     0.5      0.0    0.0    0.5    0.0      0.0      0.0   -9.90      0.2      0.2    100      4.8      4.8   100      4.9     4.9     100     16.1    1.40     37      0      0      0      0    91.1    91.1      0     1.01      4.8      4.8      4.8   100    33.2     5.965    -9.9    0.000      94        0.00     616.0    616.0    1.40   334.0     566.2     443.5     414.7     310.7     310.7     253.0    0.000     0.000     0.000     0.000     0.000    1.40     0.00    0.00      0   -9.90   -9.00       11.1       18.5       17.5       17.6       19.2       32.2       33.0       33.0       33.0       33.0       33.0       33.0        0.0        0.0        0.0        0.0        0.0        0.0        0.0        0.0        0.0        0.0        0.0        0.0      0.5       4.7      18.1      24.6      31.0    351.57
     4     5  1988    44     2     611.3     0.1      0.0    0.0    0.1    0.0      0.0      0.0   -9.90      0.2      0.1     62      4.7      4.7   100      4.8     4.8      99     16.0    1.42     41      0      0      0      0    91.6    91.6      0     1.02      4.7      4.7      4.7   100    33.2     6.302    -9.9    0.000      94        0.00     611.3    611.3    1.42   336.3     575.0     450.4     420.4     315.2     315.2     257.0    0.000     0.000     0.000     0.000     0.000    1.42     0.00    0.00      0   -9.90   -9.00       11.1       18.5       17.5       17.6       18.4       30.4       33.0       33.0       33.0       33.0       33.0       33.0        0.0        0.0        0.0        0.0        0.0        0.0        0.0        0.0        0.0        0.0        0.0        0.0      0.1       4.6      18.0      25.3      32.5    351.57
     5     5  1988    45     2     606.6     0.0      0.0    0.0    0.0    0.0      0.0      0.0   -9.90      0.2      0.0      4      4.8      4.8   100      4.9     4.8      97     16.1    1.45     45      0      0      0      0    92.0    92.0      0     1.02      4.8      4.8      4.8   100    33.2     6.640    -9.9    0.000      94        0.00     606.6    606.6    1.45   338.5     583.9     457.4     427.7     320.6     320.6     261.0    0.000     0.000     0.000     0.000     0.000    1.45     0.00    0.00      0   -9.90   -9.00       11.1       18.5       17.5       17.6       18.4       27.9       33.0       33.0       33.0       33.0       33.0       33.0        0.0        0.0        0.0        0.0        0.0        0.0        0.0        0.0        0.0        0.0        0.0        0.0      0.0       4.7      18.3      24.5      30.6    351.57
     6     5  1988    46     2     602.0     0.0      0.0    0.0    0.0    0.0      0.0      0.0   -9.90      0.1      0.0      4      4.6      4.6   100      4.7     4.6      97     16.3    1.47     48      0      0      0      0    92.3    92.3      0     1.02      4.6      4.6      4.6   100    33.2     6.979    -9.9    0.000      95        0.00     602.0    602.0    1.47   340.9     592.8     464.4     432.8     324.6     324.6     265.1    0.000     0.000     0.000     0.000     0.000    1.47     0.00    0.00      0   -9.90   -9.00       11.1       18.5       17.5       17.6       18.4       25.5       33.0       33.0       33.0       33.0       33.0       33.0        0.0        0.0        0.0        0.0        0.0        0.0        0.0        0.0        0.0        0.0        0.0        0.0      0.0       4.5      18.5      24.5      30.5    351.57
     7     5  1988    47     2     597.5     0.0      0.0    0.0    0.0    0.0      0.0      0.0   -9.90      0.1      0.0      4      4.5      4.5   100      4.6     4.5      97     16.0    1.49     51      0      0      0      0    92.6    92.6      0     1.02      4.5      4.5      4.5   100    33.2     7.318    -9.9    0.000      95        0.00     597.5    597.5    1.49   343.3     601.6     471.3     438.4     328.9     328.9     269.0    0.000     0.000     0.000     0.000     0.000    1.49     0.00    0.00      0   -9.90   -9.00       11.1       18.5       17.5       17.6       18.4       23.1       33.0       33.0       33.0       33.0       33.0       33.0        0.0        0.0        0.0        0.0        0.0        0.0        0.0        0.0        0.0        0.0        0.0        0.0      0.0       4.4      19.2      24.0      28.9    351.57
     8     5  1988    48     2     592.7     0.0      0.0    0.0    0.0    0.0      0.0      0.0   -9.90      0.1      0.0      4      4.7      4.7   100      4.8     4.7      97     16.4    1.51     56      0      0      0      0    92.8    92.8      0     1.02      4.7      4.7      4.7   100    33.2     7.658    -9.9    0.000      95        0.00     592.7    592.7    1.51   345.6     610.5     478.3     446.5     334.8     334.8     273.0    0.000     0.000     0.000     0.000     0.000    1.51     0.00    0.00      0   -9.90   -9.00       11.1       18.5       17.5       17.6       18.4       20.7       33.0       33.0       33.0       33.0       33.0       33.0        0.0        0.0        0.0        0.0        0.0        0.0        0.0        0.0        0.0        0.0        0.0        0.0      0.0       4.6      18.8      24.6      30.5    351.57
     9     5  1988    49     2     588.0     0.0      0.0    0.0    0.0    0.0      0.0      0.0   -9.90      0.1      0.0      4      4.7      4.7   100      4.8     4.7      98     16.4    1.54     61      0      0      0      0    92.9    92.9      0     1.02      4.7      4.7      4.7   100    33.2     7.998    -9.9    0.000      95        0.00     588.0    588.0    1.54   347.8     619.3     485.2     452.9     339.6     339.6     277.0    0.000     0.000     0.000     0.000     0.000    1.54     0.00    0.00      0   -9.90   -9.00       11.1       18.5       17.5       17.6       18.4       18.2       33.0       33.0       33.0       33.0       33.0       33.0        0.0        0.0        0.0        0.0        0.0        0.0        0.0        0.0        0.0        0.0        0.0        0.0      0.0       4.6      19.0      24.4      29.7    351.57
    10     5  1988    50     2     583.5     0.3      0.0    0.0    0.3    0.0      0.0      0.0   -9.90      0.1      0.1    100      4.7      4.7   100      4.8     4.8     100     16.1    1.56     65      0      0      0      0    93.0    93.0      0     1.02      4.7      4.7      4.7   100    33.2     8.338    -9.9    0.000      95        0.00     583.5    583.5    1.56   350.1     628.0     492.0     459.3     344.4     344.4     281.0    0.000     0.000     0.000     0.000     0.000    1.56     0.00    0.00      0   -9.90   -9.00       11.2       18.5       17.5       17.6       18.4       18.2       30.7       32.8       33.0       33.0       33.0       33.0        0.0        0.0        0.0        0.0        0.0        0.0        0.0        0.0        0.0        0.0        0.0        0.0      0.3       4.6      18.3      24.5      30.6    351.57
    11     5  1988    51     2     578.8     0.0      0.0    0.0    0.0    0.0      0.0      0.0   -9.90      0.1      0.1    100      4.6      4.6   100      4.7     4.7     100     16.3    1.58     69      0      0      0      0    93.1    93.1      0     1.02      4.6      4.6      4.6   100    33.2     8.678    -9.9    0.000      95        0.00     578.8    578.8    1.58   352.2     636.7     498.9     464.9     348.8     348.8     284.9    0.000     0.000     0.000     0.000     0.000    1.58     0.00    0.00      0   -9.90   -9.00       11.1       18.5       17.5       17.6       18.4       18.2       28.4       32.7       33.0       33.0       33.0       33.0        0.0        0.0        0.0        0.0        0.0        0.0        0.0        0.0        0.0        0.0        0.0        0.0      0.0       4.5      18.6      24.4      30.2    351.57
    12     5  1988    52     2     573.8     0.0      0.0    0.0    0.0    0.0      0.0      0.0   -9.90      0.1      0.1     54      4.9      4.9   100      5.0     5.0      99     16.2    1.60     77      0      0      0      0    93.1    93.1      0     1.02      4.9      4.9      4.9   100    33.2     9.016    -9.9    0.000      95        0.00     573.8    573.8    1.60   354.0     645.3     505.7     473.7     355.0     355.0     288.8    0.000     0.000     0.000     0.000     0.000    1.60     0.00    0.00      0   -9.90   -9.00       11.0       18.5       17.5       17.6       18.4       18.2       26.1       32.5       33.0       33.0       33.0       33.0        0.0        0.0        0.0        0.0        0.0        0.0        0.0        0.0        0.0        0.0        0.0        0.0      0.0       4.8      18.4      24.8      31.1    351.57
    13     5  1988    53     2     569.2     0.0      0.0    0.0    0.0    0.0      0.0      0.0   -9.90      0.1      0.0      4      4.7      4.7   100      4.8     4.7      98     15.9    1.62     81      0      0      0      0    93.2    93.2      0     1.02      4.7      4.7      4.7   100    33.2     9.353    -9.9    0.000      95        0.00     569.2    569.2    1.62   356.0     653.8     512.3     478.2     358.7     358.7     292.6    0.000     0.000     0.000     0.000     0.000    1.62     0.00    0.00      0   -9.90   -9.00       11.0       18.5       17.5       17.6       18.4       18.2       23.7       32.4       33.0       33.0       33.0       33.0        0.0        0.0        0.0        0.0        0.0        0.0        0.0        0.0        0.0        0.0        0.0        0.0      0.0       4.6      17.9      24.4      30.8    351.57
    14     5  1988    54     2     565.0     0.3      0.0    0.0    0.3    0.0      0.0      0.0   -9.90      0.1      0.1    100      4.4      4.4   100      4.5     4.5     100     15.8    1.64     83      0      0      0      0    93.2    93.2      0     1.01      4.4      4.4      4.4   100    33.2     9.689    -9.9    0.000      96        0.00     565.0    565.0    1.64   358.3     662.1     518.8     481.8     361.7     361.7     296.4    0.000     0.000     0.000     0.000     0.000    1.64     0.00    0.00      0   -9.90   -9.00       11.2       18.5       17.5       17.6       18.4       18.2       21.4       32.4       33.0       33.0       33.0       33.0        0.0        0.0        0.0        0.0        0.0        0.0        0.0        0.0        0.0        0.0        0.0        0.0      0.3       4.3      18.0      23.8      29.5    351.57
    15     5  1988    55     2     560.9     0.3      0.0    0.0    0.3    0.0      0.0      0.0   -9.90      0.1      0.1    100      4.4      4.3    97      4.6     4.4      97     15.9    1.66     89      3      0      0      0    93.2    93.2      0     1.01      4.4      4.3      4.3    97    33.2    10.016    -9.9    0.000      96        0.00     560.9    560.9    1.66   360.8     670.4     525.4     488.8     366.9     366.9     300.2    0.000     0.000     0.000     0.000     0.000    1.66     0.00    0.00      0   -9.90   -9.00       11.4       18.5       17.5       17.6       18.4       18.2       19.1       32.4       33.0       33.0       33.0       33.0        0.0        0.0        0.0        0.0        0.0        0.0        0.0        0.0        0.0        0.0        0.0        0.0      0.3       4.4      18.0      23.9      29.9    351.57
    16     5  1988    56     3     556.5     0.0      0.0    0.0    0.0    0.0      0.0      0.0   -9.90      0.1      0.1    100      4.5      4.2    93      4.7     4.3      93     15.8    1.68     95      7      1      0      0    93.1    93.1      0     1.01      4.5      4.2      4.2    93    33.2    10.327    -9.9    0.000      95        0.00     556.5    556.5    1.68   362.9     678.7     531.9     495.6     371.9     391.1     303.9    0.000     0.000     0.000     0.000     0.000    1.68     0.00    0.00      0   -9.90   -9.00       11.3       18.5       17.5       17.6       18.4       18.2       18.7       30.6       33.0       33.0       33.0       33.0        0.0        0.0        0.0        0.0        0.0        0.0        0.0        0.0        0.0        0.0        0.0        0.0      0.0       4.5      17.5      24.2      30.9    351.57
    17     5  1988    57     3     552.5     0.0      0.0    0.0    0.0    0.0      0.0      0.0   -9.90      0.1      0.1     64      4.3      3.9    91      4.4     4.0      90     15.9    1.70     98      9      2      0      0    93.0    93.0      0     1.00      4.3      3.9      3.9    91    33.2    10.630    -9.9    0.000      95        0.00     552.5    552.5    1.70   365.4     686.9     538.4     500.0     375.4     395.0     307.6    0.000     0.000     0.000     0.000     0.000    1.70     0.00    0.00      0   -9.90   -9.00       11.2       18.5       17.5       17.6       18.4       18.2       18.7       28.7       32.9       33.0       33.0       33.0        0.0        0.0        0.0        0.0        0.0        0.0        0.0        0.0        0.0        0.0        0.0        0.0      0.0       4.3      17.9      24.3      30.7    351.57
    18     5  1988    58     3     548.7     0.0      0.0    0.0    0.0    0.0      0.0      0.0   -9.90      0.1      0.0      4      4.4      3.8    88      4.5     3.8      85     15.6    1.72    100     12      3      0      0    92.8    92.8      0     1.00      4.4      3.8      3.8    88    33.2    10.920    -9.9    0.000      95        0.00     548.7    548.7    1.72   367.9     695.0     544.7     506.8     380.4     400.1     311.3    0.000     0.000     0.000     0.000     0.000    1.72     0.00    0.00      0   -9.90   -9.00       11.2       18.5       17.5       17.6       18.4       18.2       18.7       26.7       32.9       33.0       33.0       33.0        0.0        0.0        0.0        0.0        0.0        0.0        0.0        0.0        0.0        0.0        0.0        0.0      0.0       4.4      17.4      23.6      29.8    351.57
    19     5  1988    59     3     545.0     0.0      0.0    0.0    0.0    0.0      0.0      0.0   -9.90      0.1      0.0      4      4.2      3.6    86      4.4     3.6      83     15.8    1.74    100     14      3      0      0    92.6    92.6      0     0.99      4.2      3.6      3.6    86    33.2    11.201     1.6    0.175      95        0.09     545.0    545.0    1.74   370.7     703.1     551.1     511.8     384.3     404.3     315.0    0.000     0.000     0.000     0.000     0.000    1.74     0.00    0.00      0   -9.90   -9.00       11.2       18.5       17.5       17.6       18.4       18.2       18.7       24.7       32.9       33.0       33.0       33.0        0.0        0.0        0.0        0.0        0.0        0.0        0.0        0.0        0.0        0.0        0.0        0.0      0.0       4.3      17.6      24.5      31.3    351.57
    20     5  1988    60     3     541.9     0.4      0.0    0.0    0.4    0.0      0.0      0.0   -9.90      0.1      0.1    100      4.0      3.4    85      4.2     3.5      85     15.9    1.77     -9     15      4      0      0    92.4    92.4      0     0.98      4.0      3.4      3.4    85    33.2    11.478     1.8    0.206      94        0.10     541.9    541.9    1.77   373.9     711.3     557.5     515.9     387.7     408.1     318.6    0.000     0.000     0.000     0.000     0.000    1.77     0.00    0.00      0   -9.90   -9.00       11.5       18.5       17.5       17.6       18.4       18.2       18.7       22.9       32.9       33.0       33.0       33.0        0.0        0.0        0.0        0.0        0.0        0.0        0.0        0.0        0.0        0.0        0.0        0.0      0.4       4.1      17.7      23.9      30.0    351.57
    21     5  1988    61     3     538.5     0.1      0.0    0.0    0.1    0.0      0.0      0.0   -9.90      0.1      0.1     74      4.1      3.4    82      4.2     3.5      82     15.6    1.79     -9     18      4      0      0    92.1    92.1      0     0.98      4.1      3.4      3.4    82    33.2    11.746     2.1    0.243      94        0.12     538.5    538.5    1.79   376.8     719.3     563.8     522.7     392.6     413.2     322.2    0.000     0.000     0.000     0.000     0.000    1.79     0.00    0.00      0   -9.90   -9.00       11.5       18.5       17.5       17.6       18.4       18.2       18.7       21.2       32.9       33.0       33.0       33.0        0.0        0.0        0.0        0.0        0.0        0.0        0.0        0.0        0.0        0.0        0.0        0.0      0.1       4.2      17.5      23.6      29.8    351.57
    22     5  1988    62     3     535.2     0.0      0.0    0.0    0.0    0.0      0.0      0.0   -9.90      0.2      0.0      4      4.2      3.3    80      4.3     3.3      77     15.8    1.81     -9     20      5      0      0    91.7    91.7      0     0.97      4.2      3.3      3.3    80    33.2    12.002     2.4    0.285      93        0.13     535.2    535.2    1.81   379.8     727.3     570.1     529.4     397.6     418.3     325.9    0.000     0.000     0.000     0.000     0.000    1.81     0.00    0.00      0   -9.90   -9.00       11.5       18.5       17.5       17.6       18.4       18.2       18.7       19.4       32.9       33.0       33.0       33.0        0.0        0.0        0.0        0.0        0.0        0.0        0.0        0.0        0.0        0.0        0.0        0.0      0.0       4.3      17.7      23.8      29.9    351.57
    23     5  1988    63     3     532.0     0.2      0.0    0.0    0.2    0.0      0.0      0.0   -9.90      0.2      0.2    100      4.1      3.2    78      4.3     3.4      79     15.6    1.83     -9     22      6      0      0    91.4    91.4      0     0.96      4.1      3.2      3.2    78    33.2    12.251     2.7    0.335      93        0.15     532.0    532.0    1.83   382.8     735.2     576.3     535.2     402.0     422.9     329.4    0.000     0.000     0.000     0.000     0.000    1.83     0.00    0.00      0   -9.90   -9.00       11.5       18.5       17.5       17.6       18.4       18.2       18.7       18.4       32.4       33.0       33.0       33.0        0.0        0.0        0.0        0.0        0.0        0.0        0.0        0.0        0.0        0.0        0.0        0.0      0.2       4.3      17.3      23.9      30.4    351.57
    24     5  1988    64     3     529.0     0.3      0.0    0.0    0.3    0.0      0.0      0.0   -9.90      0.2      0.2    100      4.1      3.1    77      4.2     3.3      78     15.4    1.84     -9     23      6      0      0    90.9    90.9      0     0.95      4.1      3.1      3.1    77    33.2    12.491     3.1    0.392      92        0.18     529.0    529.0    1.84   385.9     743.0     582.4     540.9     406.2     427.4     333.0    0.000     0.000     0.000     0.000     0.000    1.84     0.00    0.00      0   -9.90   -9.00       11.7       18.5       17.5       17.6       18.4       18.2       18.7       18.4       31.1       33.0       33.0       33.0        0.0        0.0        0.0        0.0        0.0        0.0        0.0        0.0        0.0        0.0        0.0        0.0      0.3       4.3      17.2      23.4      29.7    351.57
    25     5  1988    65     3     527.6     1.7      0.0    0.0    1.7    0.0      0.0      0.0   -9.90      0.2      0.2    100      3.8      3.0    79      3.9     3.1      80     15.2    1.86     -9     21      5      0      0    90.5    90.5      0     0.94      3.8      3.0      3.0    79    33.2    12.738     3.6    0.458      92        0.21     527.6    527.6    1.86   390.4     750.6     588.4     543.6     408.7     430.2     336.4    0.000     0.000     0.000     0.000     0.000    1.86     0.00    0.00      0   -9.90   -9.00       13.2       18.5       17.5       17.6       18.4       18.2       18.7       18.4       29.8       33.0       33.0       33.0        0.0        0.0        0.0        0.0        0.0        0.0        0.0        0.0        0.0        0.0        0.0        0.0      1.7       4.0      18.0      23.2      28.4    351.57
    26     5  1988    66     3     525.9     0.9      0.0    0.0    0.9    0.0      0.0      0.0   -9.90      0.1      0.1    100      2.9      2.4    85      3.0     2.6      85     14.8    1.88     -9     15      4      0      0    90.2    90.2      0     0.93      2.9      2.4      2.4    85    33.2    13.000     4.1    0.535      92        0.24     525.9    525.9    1.88   394.5     757.9     594.1     540.3     407.4     429.8     339.7    0.000     0.000     0.000     0.000     0.000    1.88     0.00    0.00      0   -9.90   -9.00       14.0       18.5       17.5       17.6       18.4       18.2       18.7       18.4       28.8       33.0       33.0       33.0        0.0        0.0        0.0        0.0        0.0        0.0        0.0        0.0        0.0        0.0        0.0        0.0      0.9       3.1      17.3      22.8      28.2    351.57
    27     5  1988    67     3     523.0     0.1      0.0    0.0    0.1    0.0      0.0      0.0   -9.90      0.2      0.1     52      3.8      2.9    77      4.0     3.0      76     15.0    1.90     -9     23      6      0      0    89.7    89.7      0     0.92      3.8      2.9      2.9    77    33.2    13.236     4.7    0.623      91        0.27     523.0    523.0    1.90   397.5     765.4     600.0     555.4     417.4     439.3     343.1    0.000     0.000     0.000     0.000     0.000    1.90     0.00    0.00      0   -9.90   -9.00       14.0       18.5       17.5       17.6       18.4       18.2       18.7       18.4       27.6       33.0       33.0       33.0        0.0        0.0        0.0        0.0        0.0        0.0        0.0        0.0        0.0        0.0        0.0        0.0      0.1       4.1      17.8      23.0      28.2    351.57
    28     5  1988    68     4     520.2     0.1      0.0    0.0    0.1    0.0      0.0      0.0   -9.90      0.2      0.1     50      3.6      2.8    77      3.8     2.9      75     15.5    1.92     -9     23      6      0      0    89.2    89.2      0     0.91      3.6      2.8      2.8    77    33.2    13.466     5.4    0.723      91        0.31     520.2    520.2    1.92   400.8     773.1     606.1     560.0     421.0     443.2     346.6    0.000     0.000     0.000     0.000     0.000    1.92     0.00    0.00      0   -9.90   -9.00       14.0       18.5       17.5       17.6       18.4       18.2       18.7       18.4       26.4       33.0       33.0       33.0        0.0        0.0        0.0        0.0        0.0        0.0        0.0        0.0        0.0        0.0        0.0        0.0      0.1       4.0      18.1      23.5      28.9    351.57
    29     5  1988    69     4     517.3     0.0      0.0    0.0    0.0    0.0      0.0      0.0   -9.90      0.3      0.0      6      3.9      2.9    73      4.2     2.9      69     15.6    1.94     -9     27      8      0      0    88.5    88.5      0     0.90      3.9      2.9      2.9    73    33.2    13.684     6.1    0.836      90        0.36     517.3    517.3    1.94   403.9     780.8     612.1     569.5     427.7     449.8     350.1    0.000     0.000     0.000     0.000     0.000    1.94     0.00    0.00      0   -9.90   -9.00       14.0       18.5       17.5       17.6       18.4       18.2       18.7       18.4       25.2       33.0       33.0       33.0        0.0        0.0        0.0        0.0        0.0        0.0        0.0        0.0        0.0        0.0        0.0        0.0      0.0       4.4      17.5      23.6      29.7    351.57
    30     5  1988    70     4     515.1     0.0      0.0    0.0    0.0    0.0      0.0      0.0   -9.90      0.2      0.0      6      2.7      2.1    81      2.8     2.2      76     14.4    1.96     -9     19      5      0      0    88.0    88.0      0     0.89      2.7      2.1      2.1    81    33.2    13.922     6.9    0.966      90        0.41     515.1    515.1    1.96   407.3     787.9     617.7     560.7     423.0     446.4     353.3    0.000     0.000     0.000     0.000     0.000    1.96     0.00    0.00      0   -9.90   -9.00       14.0       18.5       17.5       17.6       18.4       18.2       18.7       18.4       24.3       33.0       33.0       33.0        0.0        0.0        0.0        0.0        0.0        0.0        0.0        0.0        0.0        0.0        0.0        0.0      0.0       3.0      16.3      22.4      28.4    351.57
    31     5  1988    71     4     512.4     0.0      0.0    0.0    0.0    0.0      0.0      0.0   -9.90      0.3      0.0      6      3.7      2.7    72      4.0     2.7      67     14.3    1.97     -9     28      8      0      0    87.3    87.3      0     0.87      3.7      2.7      2.7    72    33.2    14.130     7.9    1.111      89        0.46     512.4    512.4    1.97   410.1     794.9     623.2     578.8     434.8     457.4     356.5    0.000     0.000     0.000     0.000     0.000    1.97     0.00    0.00      0   -9.90   -9.00       14.0       18.5       17.5       17.6       18.4       18.2       18.7       18.4       23.2       33.0       33.0       33.0        0.0        0.0        0.0        0.0        0.0        0.0        0.0        0.0        0.0        0.0        0.0        0.0      0.0       4.3      16.6      22.3      27.9    351.57
     1     6  1988    72     4     509.8     0.2      0.0    0.0    0.2    0.0      0.0      0.0   -9.90      0.3      0.2     65      3.7      2.6    71      4.0     2.8      71     14.9    1.99     -9     29      9      0      0    86.4    86.4      0     0.85      3.7      2.6      2.6    71    33.2    14.331     8.9    1.272      89        0.53     509.8    509.8    1.99   413.2     802.1     628.9     584.1     438.8     461.6     359.7    0.000     0.000     0.000     0.000     0.000    1.99     0.00    0.00      0   -9.90   -9.00       14.0       18.5       17.5       17.6       18.4       18.2       18.7       18.4       22.1       33.0       33.0       33.0        0.0        0.0        0.0        0.0        0.0        0.0        0.0        0.0        0.0        0.0        0.0        0.0      0.2       4.3      17.2      22.9      28.5    351.57
     2     6  1988    73     4     508.3     1.1      0.0    0.0    1.1    0.0      0.0      0.0   -9.90      0.3      0.3    100      3.1      2.3    75      3.4     2.6      77     14.6    2.01     -9     25      7      0      0    85.6    85.6      0     0.84      3.1      2.3      2.3    75    33.2    14.539    10.0    1.447      88        0.59     508.3    508.3    2.01   417.2     809.2     634.4     583.1     438.9     462.4     362.9    0.000     0.000     0.000     0.000     0.000    2.01     0.00    0.00      0   -9.90   -9.00       14.8       18.5       17.5       17.6       18.4       18.2       18.7       18.4       21.1       33.0       33.0       33.0        0.0        0.0        0.0        0.0        0.0        0.0        0.0        0.0        0.0        0.0        0.0        0.0      1.1       3.7      17.3      22.6      27.9    351.57
     3     6  1988    74     4     505.9     0.1      0.0    0.0    0.1    0.0      0.0      0.0   -9.90      0.3      0.1     35      3.2      2.3    73      3.5     2.5      69     14.6    2.03     -9     27      8      0      0    84.7    84.7      0     0.82      3.2      2.3      2.3    73    33.2    14.738    11.0    1.625      88        0.66     505.9    505.9    2.03   420.5     816.3     640.0     590.3     444.1     467.6     366.1    0.000     0.000     0.000     0.000     0.000    2.03     0.00    0.00      0   -9.90   -9.00       14.8       18.5       17.5       17.6       18.4       18.2       18.7       18.4       20.1       33.0       33.0       33.0        0.0        0.0        0.0        0.0        0.0        0.0        0.0        0.0        0.0        0.0        0.0        0.0      0.1       3.9      16.3      22.6      28.9    351.57
     4     6  1988    75     4     503.6     0.0      0.0    0.0    0.0    0.0      0.0      0.0   -9.90      0.4      0.0      7      3.1      2.3    72      3.5     2.3      65     15.1    2.05     -9     28      8      0      0    83.6    83.6      0     0.80      3.1      2.3      2.3    72    33.2    14.931    12.1    1.806      87        0.72     503.6    503.6    2.05   423.9     823.6     645.8     595.6     448.1     471.8     369.5    0.000     0.000     0.000     0.000     0.000    2.05     0.00    0.00      0   -9.90   -9.00       14.8       18.5       17.5       17.6       18.4       18.2       18.7       18.4       19.2       33.0       33.0       33.0        0.0        0.0        0.0        0.0        0.0        0.0        0.0        0.0        0.0        0.0        0.0        0.0      0.0       3.9      16.6      23.1      29.7    351.57
     5     6  1988    76     4     501.5     0.0      0.0    0.0    0.0    0.0      0.0      0.0   -9.90      0.4      0.0      7      3.0      2.2    72      3.4     2.2      65     15.8    2.07     -9     28      8      0      0    82.5    82.5      0     0.78      3.0      2.2      2.2    72    33.2    15.119    13.2    1.991      87        0.79     501.5    501.5    2.07   427.7     831.2     651.7     600.1     451.6     475.6     372.9    0.000     0.000     0.000     0.000     0.000    2.07     0.00    0.00      0   -9.90   -9.00       14.7       18.5       17.5       17.6       18.4       18.2       18.7       18.4       18.7       32.5       33.0       33.0        0.0        0.0        0.0        0.0        0.0        0.0        0.0        0.0        0.0        0.0        0.0        0.0      0.0       3.8      17.6      23.8      29.9    351.57
     6     6  1988    77     4     499.3     0.0      0.0    0.0    0.0    0.0      0.0      0.0   -9.90      0.4      0.0      7      3.0      2.2    71      3.5     2.2      63     15.0    2.08     -9     29      9      0      0    81.2    81.2      0     0.76      3.0      2.2      2.2    71    33.2    15.298    14.2    2.178      86        0.86     499.3    499.3    2.08   431.2     838.5     657.4     607.4     456.8     480.9     376.2    0.000     0.000     0.000     0.000     0.000    2.08     0.00    0.00      0   -9.90   -9.00       14.7       18.5       17.5       17.6       18.4       18.2       18.7       18.4       18.7       31.6       33.0       33.0        0.0        0.0        0.0        0.0        0.0        0.0        0.0        0.0        0.0        0.0        0.0        0.0      0.0       4.0      16.4      23.0      29.7    351.57
     7     6  1988    78     4     497.2     0.0      0.0    0.0    0.0    0.0      0.0      0.0   -9.90      0.5      0.0      7      2.9      2.1    71      3.4     2.1      62     15.4    2.10     -9     29      9      0      0    79.7    79.7      0     0.74      2.9      2.1      2.1    71    33.2    15.471    15.3    2.369      86        0.93     497.2    497.2    2.10   434.9     845.8     663.2     612.8     460.9     485.1     379.5    0.000     0.000     0.000     0.000     0.000    2.10     0.00    0.00      0   -9.90   -9.00       14.7       18.5       17.5       17.6       18.4       18.2       18.7       18.4       18.7       30.8       33.0       33.0        0.0        0.0        0.0        0.0        0.0        0.0        0.0        0.0        0.0        0.0        0.0        0.0      0.0       4.0      16.9      23.4      29.8    351.57
     8     6  1988    79     4     495.1     0.0      0.0    0.0    0.0    0.0      0.0      0.0   -9.90      0.5      0.0      7      2.8      2.0    70      3.4     2.0      60     14.7    2.12     -9     30      9      0      0    78.2    78.2      0     0.71      2.8      2.0      2.0    70    33.2    15.637    16.4    2.562      85        0.99     495.1    495.1    2.12   438.3     852.8     668.7     617.9     464.7     489.2     382.7    0.000     0.000     0.000     0.000     0.000    2.12     0.00    0.00      0   -9.90   -9.00       14.6       18.5       17.5       17.6       18.4       18.2       18.7       18.4       18.7       29.9       33.0       33.0        0.0        0.0        0.0        0.0        0.0        0.0        0.0        0.0        0.0        0.0        0.0        0.0      0.0       4.0      16.4      22.7      29.0    351.57
     9     6  1988    80     4     493.1     0.0      0.0    0.0    0.0    0.0      0.0      0.0   -9.90      0.6      0.0      7      2.9      2.0    69      3.5     2.0      58     15.1    2.14     -9     31      9      0      0    76.5    76.5      0     0.68      2.9      2.0      2.0    69    33.2    15.794    17.5    2.756      84        1.06     493.1    493.1    2.14   442.0     860.0     674.4     625.3     470.0     494.5     385.9    0.000     0.000     0.000     0.000     0.000    2.14     0.00    0.00      0   -9.90   -9.00       14.6       18.5       17.5       17.6       18.4       18.2       18.7       18.4       18.7       29.1       33.0       33.0        0.0        0.0        0.0        0.0        0.0        0.0        0.0        0.0        0.0        0.0        0.0        0.0      0.0       4.2      16.5      23.1      29.8    351.57
    10     6  1988    81     4     491.1     0.0      0.0    0.0    0.0    0.0      0.0      0.0   -9.90      0.7      0.0      6      2.9      2.0    67      3.7     2.0      55     14.9    2.15     -9     33     10      0      0    74.5    74.5      0     0.65      2.9      2.0      2.0    67    33.2    15.940    18.5    2.953      84        1.13     491.1    491.1    2.15   445.5     867.1     679.9     633.7     475.9     500.4     389.1    0.000     0.000     0.000     0.000     0.000    2.15     0.00    0.00      0   -9.90   -9.00       14.5       18.5       17.5       17.6       18.4       18.2       18.7       18.4       18.7       28.3       33.0       33.0        0.0        0.0        0.0        0.0        0.0        0.0        0.0        0.0        0.0        0.0        0.0        0.0      0.0       4.5      16.5      22.9      29.2    351.57
    11     6  1988    82     4     489.2     0.0      0.0    0.0    0.0    0.0      0.0      0.0   -9.90      0.8      0.0      6      2.6      1.8    69      3.4     1.8      55     14.2    2.17     -9     31     10      0      0    72.5    72.5      0     0.62      2.6      1.8      1.8    69    33.2    16.082    19.6    3.151      83        1.19     489.2    489.2    2.17   448.9     873.8     685.2     635.3     477.5     502.5     392.1    0.000     0.000     0.000     0.000     0.000    2.17     0.00    0.00      0   -9.90   -9.00       14.5       18.5       17.5       17.6       18.4       18.2       18.7       18.4       18.7       27.5       33.0       33.0        0.0        0.0        0.0        0.0        0.0        0.0        0.0        0.0        0.0        0.0        0.0        0.0      0.0       4.2      15.9      22.2      28.5    351.57
    12     6  1988    83     4     487.5     0.0      0.0    0.0    0.0    0.0      0.0      0.0   -9.90      0.8      0.1      6      2.4      1.7    70      3.2     1.7      54     13.9    2.19     -9     30      9      0      0    70.5    70.5      0     0.59      2.4      1.7      1.7    70    33.2    16.219    20.7    3.352      83        1.26     487.5    487.5    2.19   452.3     880.3     690.3     637.8     479.8     505.0     395.1    0.000     0.000     0.000     0.000     0.000    2.19     0.00    0.00      0   -9.90   -9.00       14.4       18.5       17.5       17.6       18.4       18.2       18.7       18.4       18.7       26.8       33.0       33.0        0.0        0.0        0.0        0.0        0.0        0.0        0.0        0.0        0.0        0.0        0.0        0.0      0.0       4.0      15.4      21.9      28.3    351.57
    13     6  1988    84     4     485.9     0.0      0.0    0.0    0.0    0.0      0.0      0.0   -9.90      0.9      0.1      6      2.3      1.6    69      3.2     1.6      52     14.3    2.20     -9     31      9      0      0    68.2    68.2      0     0.56      2.3      1.6      1.6    69    33.2    16.348    21.7    3.553      82        1.33     485.9    485.9    2.20   456.0     887.0     695.6     643.8     484.1     509.5     398.1    0.000     0.000     0.000     0.000     0.000    2.20     0.00    0.00      0   -9.90   -9.00       14.4       18.5       17.5       17.6       18.4       18.2       18.7       18.4       18.7       26.1       33.0       33.0        0.0        0.0        0.0        0.0        0.0        0.0        0.0        0.0        0.0        0.0        0.0        0.0      0.0       4.1      15.5      22.3      29.1    351.57
    14     6  1988    85     4     484.4     0.0      0.0    0.0    0.0    0.0      0.0      0.0   -9.90      0.9      0.1      6      2.1      1.4    70      3.0     1.5      51     14.0    2.22     -9     30      9      0      0    65.8    65.8      0     0.53      2.1      1.4      1.4    70    33.2    16.471    22.8    3.756      81        1.40     484.4    484.4    2.22   459.6     893.5     700.7     646.3     486.3     512.1     401.1    0.000     0.000     0.000     0.000     0.000    2.22     0.00    0.00      0   -9.90   -9.00       14.3       18.5       17.5       17.6       18.4       18.2       18.7       18.4       18.7       25.5       33.0       33.0        0.0        0.0        0.0        0.0        0.0        0.0        0.0        0.0        0.0        0.0        0.0        0.0      0.0       3.9      15.3      22.0      28.6    351.57
    15     6  1988    86     4     482.9     0.0      0.0    0.0    0.0    0.0      0.0      0.0   -9.90      1.1      0.1      6      2.0      1.4    70      3.1     1.5      48     13.8    2.24     -9     30      9      0      0    63.3    63.3      0     0.49      2.0      1.4      1.4    70    33.2    16.585    23.9    3.960      81        1.47     482.9    482.9    2.24   463.2     900.0     705.8     653.3     491.3     517.0     404.0    0.000     0.000     0.000     0.000     0.000    2.24     0.00    0.00      0   -9.90   -9.00       14.3       18.5       17.5       17.6       18.4       18.2       18.7       18.4       18.7       24.9       33.0       33.0        0.0        0.0        0.0        0.0        0.0        0.0        0.0        0.0        0.0        0.0        0.0        0.0      0.0       4.1      15.7      21.8      27.9    351.57
    16     6  1988    87     4     481.5     0.0      0.0    0.0    0.0    0.0      0.0      0.0   -9.90      1.2      0.1      6      1.9      1.3    70      3.0     1.4      45     13.4    2.25     -9     30      9      0      0    60.6    60.6      0     0.46      1.9      1.3      1.3    70    33.2    16.691    24.9    4.164      80        1.53     481.5    481.5    2.25   466.7     906.2     710.7     657.8     494.7     520.6     406.8    0.000     0.000     0.000     0.000     0.000    2.25     0.00    0.00      0   -9.90   -9.00       14.2       18.5       17.5       17.6       18.4       18.2       18.7       18.4       18.7       24.4       33.0       33.0        0.0        0.0        0.0        0.0        0.0        0.0        0.0        0.0        0.0        0.0        0.0        0.0      0.0       4.1      15.0      21.4      27.7    351.57
    17     6  1988    88     4     480.4     0.0      0.0    0.0    0.0    0.0      0.0      0.0   -9.90      1.0      0.1      6      1.5      1.1    74      2.5     1.1      46     12.0    2.27     -9     26      7      0      0    58.4    58.4      0     0.43      1.5      1.1      1.1    74    33.2    16.796    26.0    4.370      79        1.60     480.4    480.4    2.27   470.0     911.8     715.1     653.8     492.8     519.5     409.4    0.000     0.000     0.000     0.000     0.000    2.27     0.00    0.00      0   -9.90   -9.00       14.1       18.5       17.5       17.6       18.4       18.2       18.7       18.4       18.7       23.9       33.0       33.0        0.0        0.0        0.0        0.0        0.0        0.0        0.0        0.0        0.0        0.0        0.0        0.0      0.0       3.4      14.2      20.0      25.8    351.57
    18     6  1988    89     4     479.2     0.0      0.0    0.0    0.0    0.0      0.0      0.0   -9.90      1.2      0.1      6      1.5      1.1    72      2.8     1.2      42     12.3    2.28     -9     28      8      0      0    55.9    55.9      0     0.40      1.5      1.1      1.1    72    33.2    16.891    27.1    4.576      78        1.67     479.2    479.2    2.28   473.3     917.6     719.6     662.6     498.8     525.3     412.0    0.000     0.000     0.000     0.000     0.000    2.28     0.00    0.00      0   -9.90   -9.00       14.0       18.5       17.5       17.6       18.4       18.2       18.7       18.4       18.7       23.5       33.0       33.0        0.0        0.0        0.0        0.0        0.0        0.0        0.0        0.0        0.0        0.0        0.0        0.0      0.0       3.8      14.0      20.3      26.6    351.57
    19     6  1988    90     4     478.2     0.0      0.0    0.0    0.0    0.0      0.0      0.0   -9.90      1.3      0.1      6      1.3      1.0    73      2.7     1.1      40     12.8    2.29     -9     27      8      0      0    53.2    53.2      0     0.36      1.3      1.0      1.0    73    33.2    16.978    28.2    4.782      78        1.74     478.2    478.2    2.29   476.5     922.9     723.8     665.3     501.0     527.7     414.4    0.000     0.000     0.000     0.000     0.000    2.29     0.00    0.00      0   -9.90   -9.00       14.0       18.5       17.5       17.6       18.4       18.2       18.7       18.4       18.7       23.1       33.0       33.0        0.0        0.0        0.0        0.0        0.0        0.0        0.0        0.0        0.0        0.0        0.0        0.0      0.0       3.7      15.4      20.8      26.2    351.57
[...]
    17     6  2018    88     4     477.1     0.0      0.0    0.0    0.0    0.0      0.0      0.0   -9.90      0.6      0.1     10      3.0      2.0    67      3.6     2.1      58     15.4    2.28     -9     33     11      0      0    79.5    79.5      0     0.68      3.0      2.0      2.0    67    34.7    19.283    28.0    5.391      89        1.76     477.1    477.1    2.28   469.6     915.6     718.0     668.1     502.0     527.9     411.1    0.000     0.000     0.000     0.000     0.000    2.28     0.00    0.00      0   -9.90   -9.00       17.3       17.4       17.1       17.6       17.6       18.6       18.4       18.8       18.7       22.3       33.0       33.0        0.0        0.0        0.0        0.0        0.0        0.0        0.0        0.0        0.0        0.0        0.0        0.0      0.0       4.4      16.7      23.7      30.7    408.21
    18     6  2018    89     4     475.2     0.0      0.0    0.0    0.0    0.0      0.0      0.0   -9.90      0.6      0.1     10      2.8      1.9    67      3.4     1.9      57     15.7    2.29     -9     33     10      0      0    77.4    77.4      0     0.65      2.8      1.9      1.9    67    34.7    19.434    29.1    5.653      88        1.83     475.2    475.2    2.29   473.4     922.8     723.7     672.3     505.2     531.5     414.3    0.000     0.000     0.000     0.000     0.000    2.29     0.00    0.00      0   -9.90   -9.00       17.2       17.4       17.1       17.6       17.6       18.6       18.4       18.8       18.7       21.5       33.0       33.0        0.0        0.0        0.0        0.0        0.0        0.0        0.0        0.0        0.0        0.0        0.0        0.0      0.0       4.3      17.4      24.4      31.3    408.21
    19     6  2018    90     4     473.2     0.0      0.0    0.0    0.0    0.0      0.0      0.0   -9.90      0.8      0.1     10      3.0      1.9    62      3.8     2.0      51     15.3    2.30     -9     38     13      0      0    74.8    74.8      0     0.61      3.0      1.9      1.9    62    34.7    19.567    30.2    5.913      88        1.91     473.2    473.2    2.30   472.0     923.6     724.3     679.8     509.9     535.7     414.7    0.000     0.000     0.000     0.000     0.000    2.30     0.00    0.00      0   -9.90   -9.00       17.2       17.4       17.1       17.6       17.6       18.6       18.4       18.8       18.7       20.7       33.0       33.0        0.0        0.0        0.0        0.0        0.0        0.0        0.0        0.0        0.0        0.0        0.0        0.0      0.0       4.9      16.6      24.1      31.6    408.21
    20     6  2018    91     4     471.7     0.0      0.0    0.0    0.0    0.0      0.0      0.0   -9.90      0.7      0.1      9      2.3      1.5    65      2.9     1.5      53     14.6    2.30     -9     35     11      0      0    72.3    72.3      0     0.58      2.3      1.5      1.5    65    34.7    19.697    31.4    6.175      87        1.98     471.7    471.7    2.30   470.5     923.6     724.3     668.1     502.8     529.4     414.7    0.000     0.000     0.000     0.000     0.000    2.30     0.00    0.00      0   -9.90   -9.00       17.1       17.4       17.1       17.6       17.6       18.6       18.4       18.8       18.7       20.1       33.0       33.0        0.0        0.0        0.0        0.0        0.0        0.0        0.0        0.0        0.0        0.0        0.0        0.0      0.0       3.9      16.2      22.6      29.1    408.21
    21     6  2018    92     4     470.3     0.0      0.0    0.0    0.0    0.0      0.0      0.0   -9.90      0.7      0.1      9      2.2      1.4    63      2.9     1.4      49     14.8    2.30     -9     37     13      0      0    69.3    69.3      0     0.54      2.2      1.4      1.4    63    34.7    19.815    32.5    6.436      86        2.06     470.3    470.3    2.30   469.1     923.6     724.3     669.3     503.5     530.0     414.7    0.000     0.000     0.000     0.000     0.000    2.30     0.00    0.00      0   -9.90   -9.00       17.0       17.4       17.1       17.6       17.6       18.6       18.4       18.8       18.7       19.5       33.0       33.0        0.0        0.0        0.0        0.0        0.0        0.0        0.0        0.0        0.0        0.0        0.0        0.0      0.0       4.0      15.5      22.8      30.1    408.21
    22     6  2018    93     4     469.1     0.0      0.0    0.0    0.0    0.0      0.0      0.0   -9.90      0.7      0.1      9      1.8      1.1    63      2.5     1.2      48     14.7    2.30     -9     37     12      0      0    66.1    66.1      0     0.50      1.8      1.1      1.1    63    34.7    19.924    33.6    6.697      86        2.13     469.1    469.1    2.30   467.9     923.6     724.3     664.6     500.6     527.5     414.7    0.000     0.000     0.000     0.000     0.000    2.30     0.00    0.00      0   -9.90   -9.00       16.9       17.4       17.1       17.6       17.6       18.6       18.4       18.8       18.7       19.0       33.0       33.0        0.0        0.0        0.0        0.0        0.0        0.0        0.0        0.0        0.0        0.0        0.0        0.0      0.0       3.6      15.4      22.7      30.0    408.21
    23     6  2018    94     4     468.0     0.0      0.0    0.0    0.0    0.0      0.0      0.0   -9.90      0.8      0.1      9      1.5      1.0    63      2.3     1.0      45     14.3    2.30     -9     37     12      0      0    62.6    62.6      0     0.45      1.5      1.0      1.0    63    34.7    20.023    34.7    6.956      85        2.21     468.0    468.0    2.30   466.9     923.6     724.3     662.3     499.2     526.2     414.7    0.000     0.000     0.000     0.000     0.000    2.30     0.00    0.00      0   -9.90   -9.00       16.9       17.4       17.1       17.6       17.6       18.6       18.4       18.8       18.7       18.9       32.7       33.0        0.0        0.0        0.0        0.0        0.0        0.0        0.0        0.0        0.0        0.0        0.0        0.0      0.0       3.4      16.0      22.3      28.6    408.21
    24     6  2018    95     4     467.0     0.1      0.0    0.0    0.1    0.0      0.0      0.0   -9.90      0.9      0.2     19      1.5      0.9    60      2.4     1.1      44     14.8    2.30     -9     40     14      0      0    58.3    58.3      0     0.40      1.5      0.9      0.9    60    34.7    20.105    35.9    7.212      84        2.28     467.0    467.0    2.30   465.9     923.6     724.3     667.0     502.1     528.7     414.7    0.000     0.000     0.000     0.000     0.000    2.30     0.00    0.00      0   -9.90   -9.00       16.8       17.4       17.1       17.6       17.6       18.6       18.4       18.8       18.7       18.9       32.3       33.0        0.0        0.0        0.0        0.0        0.0        0.0        0.0        0.0        0.0        0.0        0.0        0.0      0.1       3.8      16.3      22.8      29.2    408.21
    25     6  2018    96     4     466.3     0.9      0.0    0.0    0.9    0.0      0.0      0.0   -9.90      1.0      0.9     94      1.3      0.8    59      2.2     1.7      74     14.7    2.30     -9     41     14      0      0    53.6    53.6      0     0.34      1.3      0.8      0.8    59    34.7    20.176    37.0    7.464      84        2.35     466.3    466.3    2.30   465.1     923.6     724.3     665.8     501.3     528.1     414.7    0.000     0.000     0.000     0.000     0.000    2.30     0.00    0.00      0   -9.90   -9.00       16.8       17.4       17.1       17.6       17.6       18.6       18.4       18.8       18.7       18.9       32.0       33.0        0.0        0.0        0.0        0.0        0.0        0.0        0.0        0.0        0.0        0.0        0.0        0.0      0.9       3.7      16.5      22.7      28.9    408.21
    26     6  2018    97     4     465.5     0.1      0.0    0.0    0.1    0.0      0.0      0.0   -9.90      1.3      0.2     16      1.3      0.7    55      2.5     0.9      35     15.0    2.30     -9     45     17      0      0    47.5    47.5      0     0.28      1.3      0.7      0.7    55    34.7    20.229    38.1    7.711      83        2.42     465.5    465.5    2.30   464.3     923.6     724.3     675.1     507.1     533.1     414.7    0.000     0.000     0.000     0.000     0.000    2.30     0.00    0.00      0   -9.90   -9.00       16.7       17.4       17.1       17.6       17.6       18.6       18.4       18.8       18.7       18.9       31.7       33.0        0.0        0.0        0.0        0.0        0.0        0.0        0.0        0.0        0.0        0.0        0.0        0.0      0.1       4.5      16.2      23.0      29.9    408.21
    27     6  2018    98     4     464.9     0.0      0.0    0.0    0.0    0.0      0.0      0.0   -9.90      1.3      0.1      9      0.9      0.5    54      2.3     0.6      28     14.5    2.30     -9     46     18      0      0    40.9    40.9      0     0.21      0.9      0.5      0.5    54    34.7    20.269    39.2    7.954      83        2.49     464.9    464.9    2.30   463.7     923.6     724.3     674.0     506.4     532.5     414.7    0.000     0.000     0.000     0.000     0.000    2.30     0.00    0.00      0   -9.90   -9.00       16.6       17.4       17.1       17.6       17.6       18.6       18.4       18.8       18.7       18.9       31.5       33.0        0.0        0.0        0.0        0.0        0.0        0.0        0.0        0.0        0.0        0.0        0.0        0.0      0.0       4.4      15.6      22.5      29.4    408.21
    28     6  2018    99     4     464.4     0.0      0.0    0.0    0.0    0.0      0.0      0.0   -9.90      1.5      0.1      8      0.7      0.4    53      2.2     0.5      22     13.9    2.30     -9     47     18      0      0    33.6    33.6      0     0.15      0.7      0.4      0.4    53    34.7    20.297    40.4    8.193      82        2.56     464.4    464.4    2.30   463.2     923.6     724.3     674.0     506.4     532.5     414.7    0.000     0.000     0.000     0.000     0.000    2.30     0.00    0.00      0   -9.90   -9.00       16.4       17.4       17.1       17.6       17.6       18.6       18.4       18.8       18.7       18.9       31.4       33.0        0.0        0.0        0.0        0.0        0.0        0.0        0.0        0.0        0.0        0.0        0.0        0.0      0.0       4.4      15.5      21.9      28.4    408.21
    29     6  2018   100     4     464.1     0.0      0.0    0.0    0.0    0.0      0.0      0.0   -9.90      1.4      0.1      8      0.3      0.2    57      1.8     0.3      18     13.1    2.30     -9     43     16      0      0    26.5    26.5      0     0.10      0.3      0.2      0.2    57    34.7    20.316    41.5    8.429      81        2.63     464.1    464.1    2.30   462.9     923.6     724.3     663.5     499.9     526.8     414.7    0.000     0.000     0.000     0.000     0.000    2.30     0.00    0.00      0   -9.90   -9.00       16.3       17.4       17.1       17.6       17.6       18.6       18.4       18.8       18.7       18.9       31.3       33.0        0.0        0.0        0.0        0.0        0.0        0.0        0.0        0.0        0.0        0.0        0.0        0.0      0.0       3.5      14.8      21.1      27.4    408.21
    30     6  2018   101     4     463.8     0.0      0.0    0.0    0.0    0.0      0.0      0.0   -9.90      2.0      0.2      8      0.2      0.1    53      2.2     0.3      12     14.1    2.30     -9     47     18      0      0    17.4    17.4      0     0.04      0.2      0.1      0.1    53    34.7    20.324    42.6    8.661      81        2.70     463.8    463.8    2.30   462.7     923.6     724.3     671.6     504.9     531.3     414.7    0.000     0.000     0.000     0.000     0.000    2.30     0.00    0.00      0   -9.90   -9.00       16.2       17.4       17.1       17.6       17.6       18.6       18.4       18.8       18.7       18.9       31.3       33.0        0.0        0.0        0.0        0.0        0.0        0.0        0.0        0.0        0.0        0.0        0.0        0.0      0.0       4.2      15.7      22.1      28.5    408.21
     1     7  2018   102     4     463.6     0.0      0.0    0.0    0.0    0.0      0.0      0.0   -9.90      2.2      0.2      8      0.0      0.0    55      2.2     0.2       9     13.4    2.30     -9     45     17      0      0     7.9     7.9      0     0.01      0.0      0.0      0.0    55    34.7    20.326    43.7    8.890      80        2.77     463.6    463.6    2.30   462.5     923.6     724.3     667.0     502.1     528.7     414.7    0.000     0.000     0.000     0.000     0.000    2.30     0.00    0.00      0   -9.90   -9.00       16.0       17.4       17.1       17.6       17.6       18.6       18.4       18.8       18.7       18.9       31.3       33.0        0.0        0.0        0.0        0.0        0.0        0.0        0.0        0.0        0.0        0.0        0.0        0.0      0.0       3.8      15.9      21.4      27.0    408.21
     2     7  2018   103     4     463.5     0.0      0.0    0.0    0.0    0.0      0.0      0.0   -9.90      2.2      0.2      7      0.0      0.0   100      2.2     0.2       7     14.4    2.30     -9     -9     18      0     -9     0.0     0.0      0    -9.00      0.0      0.0      0.0   100    34.7    20.326    44.9    9.120      80        2.84     463.5    463.5    2.30   462.3     923.6     724.3     668.1     502.8     529.4     414.7    0.000     0.000     0.000     0.000     0.000    2.30     0.00    0.00      0   -9.90   -9.00       15.8       17.4       17.1       17.6       17.6       18.6       18.4       18.8       18.7       18.9       31.3       33.0        0.0        0.0        0.0        0.0        0.0        0.0        0.0        0.0        0.0        0.0        0.0        0.0      0.0       3.9      15.9      22.4      28.9    408.21
     3     7  2018   104    -9     463.3     0.0      0.0    0.0    0.0    0.0      0.0      0.0   -9.90      2.5      0.2      7      0.0      0.0   100      2.5     0.2       7     15.3    2.30     -9     -9     18      0     -9     0.0     0.0      0    -9.00      0.0      0.0      0.0   100    34.7    20.326    45.3    9.198      79        2.87     463.3    463.3    2.30   462.1     923.6     724.3     668.1     505.6     529.4     414.7    0.000     0.000     0.000     0.000     0.000    2.30     0.00    0.00      0   -9.90   -9.00       15.6       17.4       17.1       17.6       17.6       18.6       18.4       18.8       18.7       18.9       31.3       33.0        0.0        0.0        0.0        0.0        0.0        0.0        0.0        0.0        0.0        0.0        0.0        0.0      0.0       4.3      16.6      23.4      30.1    408.21
     4     7  2018   105    -9     463.1     0.0      0.0    0.0    0.0    0.0      0.0      0.0   -9.90      2.5      0.2      7      0.0      0.0   100      2.5     0.2       7     14.8    2.30     -9     -9     18      0     -9     0.0     0.0      0    -9.00      0.0      0.0      0.0   100    34.7    20.326    45.3    9.198      79        2.87     463.1    463.1    2.30   462.0     923.6     724.3     668.1     506.4     529.4     414.7    0.000     0.000     0.000     0.000     0.000    2.30     0.00    0.00      0   -9.90   -9.00       15.4       17.4       17.1       17.6       17.6       18.6       18.4       18.8       18.7       18.9       31.3       33.0        0.0        0.0        0.0        0.0        0.0        0.0        0.0        0.0        0.0        0.0        0.0        0.0      0.0       4.4      16.7      22.8      28.9    408.21
     5     7  2018   106    -9     463.0     0.0      0.0    0.0    0.0    0.0      0.0      0.0   -9.90      2.5      0.2      7      0.0      0.0   100      2.5     0.2       7     15.5    2.30     -9     -9     18      0     -9     0.0     0.0      0    -9.00      0.0      0.0      0.0   100    34.7    20.326    45.3    9.198      79        2.87     463.0    463.0    2.30   461.8     923.6     724.3     668.1     506.4     529.4     414.7    0.000     0.000     0.000     0.000     0.000    2.30     0.00    0.00      0   -9.90   -9.00       15.3       17.4       17.1       17.6       17.6       18.6       18.4       18.8       18.7       18.9       31.3       33.0        0.0        0.0        0.0        0.0        0.0        0.0        0.0        0.0        0.0        0.0        0.0        0.0      0.0       4.4      17.4      23.5      29.7    408.21
     6     7  2018   107    -9     462.8     0.0      0.0    0.0    0.0    0.0      0.0      0.0   -9.90      2.5      0.2      6      0.0      0.0   100      2.5     0.2       6     15.3    2.30     -9     -9     18      0     -9     0.0     0.0      0    -9.00      0.0      0.0      0.0   100    34.7    20.326    45.3    9.198      79        2.87     462.8    462.8    2.30   461.6     923.6     724.3     668.1     505.6     529.4     414.7    0.000     0.000     0.000     0.000     0.000    2.30     0.00    0.00      0   -9.90   -9.00       15.1       17.4       17.1       17.6       17.6       18.6       18.4       18.8       18.7       18.9       31.3       33.0        0.0        0.0        0.0        0.0        0.0        0.0        0.0        0.0        0.0        0.0        0.0        0.0      0.0       4.3      16.6      23.6      30.5    408.21
     7     7  2018   108    -9     462.7     0.0      0.0    0.0    0.0    0.0      0.0      0.0   -9.90      2.3      0.1      6      0.0      0.0   100      2.3     0.1       6     14.9    2.30     -9     -9     18      0     -9     0.0     0.0      0    -9.00      0.0      0.0      0.0   100    34.7    20.326    45.3    9.198      79        2.87     462.7    462.7    2.30   461.5     923.6     724.3     668.1     503.5     529.4     414.7    0.000     0.000     0.000     0.000     0.000    2.30     0.00    0.00      0   -9.90   -9.00       15.0       17.4       17.1       17.6       17.6       18.6       18.4       18.8       18.7       18.9       31.3       33.0        0.0        0.0        0.0        0.0        0.0        0.0        0.0        0.0        0.0        0.0        0.0        0.0      0.0       4.0      16.4      22.9      29.5    408.21
     8     7  2018   109    -9     462.5     0.0      0.0    0.0    0.0    0.0      0.0      0.0   -9.90      2.3      0.1      6      0.0      0.0   100      2.3     0.1       6     14.9    2.30     -9     -9     18      0     -9     0.0     0.0      0    -9.00      0.0      0.0      0.0   100    34.7    20.326    45.3    9.198      79        2.87     462.5    462.5    2.30   461.4     923.6     724.3     668.1     503.5     529.4     414.7    0.000     0.000     0.000     0.000     0.000    2.30     0.00    0.00      0   -9.90   -9.00       14.8       17.4       17.1       17.6       17.6       18.6       18.4       18.8       18.7       18.9       31.3       33.0        0.0        0.0        0.0        0.0        0.0        0.0        0.0        0.0        0.0        0.0        0.0        0.0      0.0       4.0      16.3      22.9      29.4    408.21
     9     7  2018   110    -9     462.4     0.0      0.0    0.0    0.0    0.0      0.0      0.0   -9.90      2.5      0.1      6      0.0      0.0   100      2.5     0.1       6     15.3    2.30     -9     -9     18      0     -9     0.0     0.0      0    -9.00      0.0      0.0      0.0   100    34.7    20.326    45.3    9.198      79        2.87     462.4    462.4    2.30   461.2     923.6     724.3     668.1     505.6     529.4     414.7    0.000     0.000     0.000     0.000     0.000    2.30     0.00    0.00      0   -9.90   -9.00       14.7       17.4       17.1       17.6       17.6       18.6       18.4       18.8       18.7       18.9       31.3       33.0        0.0        0.0        0.0        0.0        0.0        0.0        0.0        0.0        0.0        0.0        0.0        0.0      0.0       4.3      16.9      23.3      29.6    408.21
